Program Version,EnergyPlus, Version 22.1.0-ed759b17ee, YMD=2023.10.17 13:16
