Program Version,EnergyPlus, Version 22.1.0-ed759b17ee, YMD=2023.10.17 13:16
! <Version>, Version ID
 Version, 22.1
! <Timesteps per Hour>, #TimeSteps, Minutes per TimeStep {minutes}
 Timesteps per Hour,  6, 10
! <System Convergence Limits>, Minimum System TimeStep {minutes}, Max HVAC Iterations, Minimum Plant Iterations, Maximum Plant Iterations
 System Convergence Limits, 1, 20, 2, 8
! <Simulation Control>, Do Zone Sizing, Do System Sizing, Do Plant Sizing, Do Design Days, Do Weather Simulation, Do HVAC Sizing Simulation
 Simulation Control, Yes, Yes, No, No, Yes, No
! <Performance Precision Tradeoffs>, Use Coil Direct Simulation, Zone Radiant Exchange Algorithm, Override Mode, Number of Timestep In Hour, Force Euler Method, Minimum Number of Warmup Days, Force Suppress All Begin Environment Resets, Minimum System Timestep, MaxZoneTempDiff, MaxAllowedDelTemp
 Performance Precision Tradeoffs, No, ScriptF, Normal, 6, No, 1, No, 1.0, 0.300, 2.0000E-003
! <Output Reporting Tolerances>, Tolerance for Time Heating Setpoint Not Met, Tolerance for Zone Cooling Setpoint Not Met Time
 Output Reporting Tolerances, 0.200, 0.200, 
! <Site:GroundTemperature:BuildingSurface>,Jan{C},Feb{C},Mar{C},Apr{C},May{C},Jun{C},Jul{C},Aug{C},Sep{C},Oct{C},Nov{C},Dec{C}
 Site:GroundTemperature:BuildingSurface,  18.00,  18.00,  18.00,  18.00,  18.00,  18.00,  18.00,  18.00,  18.00,  18.00,  18.00,  18.00
! <Site:GroundTemperature:FCfactorMethod>,Jan{C},Feb{C},Mar{C},Apr{C},May{C},Jun{C},Jul{C},Aug{C},Sep{C},Oct{C},Nov{C},Dec{C}
 Site:GroundTemperature:FCfactorMethod,  10.86,  10.57,  11.08,  11.88,  13.97,  15.58,  16.67,  17.00,  16.44,  15.19,  13.51,  11.96
! <Site:GroundTemperature:Shallow>,Jan{C},Feb{C},Mar{C},Apr{C},May{C},Jun{C},Jul{C},Aug{C},Sep{C},Oct{C},Nov{C},Dec{C}
 Site:GroundTemperature:Shallow,  13.00,  13.00,  13.00,  13.00,  13.00,  13.00,  13.00,  13.00,  13.00,  13.00,  13.00,  13.00
! <Site:GroundTemperature:Deep>,Jan{C},Feb{C},Mar{C},Apr{C},May{C},Jun{C},Jul{C},Aug{C},Sep{C},Oct{C},Nov{C},Dec{C}
 Site:GroundTemperature:Deep,  16.00,  16.00,  16.00,  16.00,  16.00,  16.00,  16.00,  16.00,  16.00,  16.00,  16.00,  16.00
! <Site:GroundReflectance>,Jan{dimensionless},Feb{dimensionless},Mar{dimensionless},Apr{dimensionless},May{dimensionless},Jun{dimensionless},Jul{dimensionless},Aug{dimensionless},Sep{dimensionless},Oct{dimensionless},Nov{dimensionless},Dec{dimensionless}
 Site:GroundReflectance,  0.20,  0.20,  0.20,  0.20,  0.20,  0.20,  0.20,  0.20,  0.20,  0.20,  0.20,  0.20
! <Site:GroundReflectance:SnowModifier>, Normal, Daylighting {dimensionless}
 Site:GroundReflectance:SnowModifier,   1.000,   1.000
! <Site:GroundReflectance:Snow>,Jan{dimensionless},Feb{dimensionless},Mar{dimensionless},Apr{dimensionless},May{dimensionless},Jun{dimensionless},Jul{dimensionless},Aug{dimensionless},Sep{dimensionless},Oct{dimensionless},Nov{dimensionless},Dec{dimensionless}
 Site:GroundReflectance:Snow,  0.20,  0.20,  0.20,  0.20,  0.20,  0.20,  0.20,  0.20,  0.20,  0.20,  0.20,  0.20
! <Site:GroundReflectance:Snow:Daylighting>,Jan{dimensionless},Feb{dimensionless},Mar{dimensionless},Apr{dimensionless},May{dimensionless},Jun{dimensionless},Jul{dimensionless},Aug{dimensionless},Sep{dimensionless},Oct{dimensionless},Nov{dimensionless},Dec{dimensionless}
 Site:GroundReflectance:Snow:Daylighting,  0.20,  0.20,  0.20,  0.20,  0.20,  0.20,  0.20,  0.20,  0.20,  0.20,  0.20,  0.20
! <Environment:Weather Station>,Wind Sensor Height Above Ground {m},Wind Speed Profile Exponent {},Wind Speed Profile Boundary Layer Thickness {m},Air Temperature Sensor Height Above Ground {m},Wind Speed Modifier Coefficient-Internal,Temperature Modifier Coefficient-Internal
Environment:Weather Station,10.000,0.140,270.000,1.500,1.586,9.750E-003
! <Site:Location>, Location Name, Latitude {N+/S- Deg}, Longitude {E+/W- Deg},  Time Zone Number {GMT+/-}, Elevation {m},  Standard Pressure at Elevation {Pa}, Standard RhoAir at Elevation
Site:Location,San Francisco Intl Ap CA USA TMY3 WMO#=724940,37.62,-122.40,-8.00,2.00,101301,1.2040
! <Site Water Mains Temperature Information>,Calculation Method{},Water Mains Temperature Schedule Name{},Annual Average Outdoor Air Temperature{C},Maximum Difference In Monthly Average Outdoor Air Temperatures{deltaC},Fixed Default Water Mains Temperature{C}
Site Water Mains Temperature Information,CorrelationFromWeatherFile,NA,13.79,7.10,NA
! <Building Information>, Building Name,North Axis {deg},Terrain,  Loads Convergence Tolerance Value,Temperature Convergence Tolerance Value,  Solar Distribution,Maximum Number of Warmup Days,Minimum Number of Warmup Days
 Building Information,Building 1,0.000,City,4.00000E-002,0.40000,FullExteriorWithReflectionsFromExteriorSurfaces,25,1
! <Inside Convection Algorithm>, Algorithm {Simple | TARP | CeilingDiffuser | AdaptiveConvectionAlgorithm}
Inside Convection Algorithm,TARP
! <Outside Convection Algorithm>, Algorithm {SimpleCombined | TARP | MoWitt | DOE-2 | AdaptiveConvectionAlgorithm}
Outside Convection Algorithm,DOE-2
! <Sky Radiance Distribution>, Value {Anisotropic}
Sky Radiance Distribution,Anisotropic
! <Zone Air Solution Algorithm>, Value {ThirdOrderBackwardDifference | AnalyticalSolution | EulerMethod}
 Zone Air Solution Algorithm, ThirdOrderBackwardDifference
! <Zone Air Carbon Dioxide Balance Simulation>, Simulation {Yes/No}, Carbon Dioxide Concentration
 Zone Air Carbon Dioxide Balance Simulation, No,N/A
! <Zone Air Generic Contaminant Balance Simulation>, Simulation {Yes/No}, Generic Contaminant Concentration
 Zone Air Generic Contaminant Balance Simulation, No,N/A
! <Zone Air Mass Flow Balance Simulation>, Enforce Mass Balance, Adjust Zone Mixing and Return {AdjustMixingOnly | AdjustReturnOnly | AdjustMixingThenReturn | AdjustReturnThenMixing | None}, Adjust Zone Infiltration {AddInfiltration | AdjustInfiltration | None}, Infiltration Zones {MixingSourceZonesOnly | AllZones}
 Zone Air Mass Flow Balance Simulation, No,N/A,N/A,N/A
! <HVACSystemRootFindingAlgorithm>, Value {RegulaFalsi | Bisection | BisectionThenRegulaFalsi | RegulaFalsiThenBisection}
 HVACSystemRootFindingAlgorithm, RegulaFalsi
! <Environment:Site Atmospheric Variation>,Wind Speed Profile Exponent {},Wind Speed Profile Boundary Layer Thickness {m},Air Temperature Gradient Coefficient {K/m}
Environment:Site Atmospheric Variation,0.330,460.000,6.500000E-003
! <Surface Geometry>,Starting Corner,Vertex Input Direction,Coordinate System,Daylight Reference Point Coordinate System,Rectangular (Simple) Surface Coordinate System
 Surface Geometry,UpperLeftCorner,Counterclockwise,RelativeCoordinateSystem,RelativeCoordinateSystem,RelativeToZoneOrigin
! <ShadingProperty Reflectance>,Shading Surface Name,Shading Type,Diffuse Solar Reflectance, Diffuse Visible Reflectance,Surface Glazing Fraction,Surface Glazing Contruction
! <Surface Heat Transfer Algorithm>, Value {CTF - ConductionTransferFunction | EMPD - MoisturePenetrationDepthConductionTransferFunction | CondFD - ConductionFiniteDifference | HAMT - CombinedHeatAndMoistureFiniteElement} - Description,Inside Surface Max Temperature Limit{C}, Surface Convection Coefficient Lower Limit {W/m2-K}, Surface Convection Coefficient Upper Limit {W/m2-K}
Surface Heat Transfer Algorithm, CTF - ConductionTransferFunction,200,0.10,1000.0
! <Shading Summary>, Number of Fixed Detached Shades, Number of Building Detached Shades, Number of Attached Shades
 Shading Summary,0,0,0
! <Zone Summary>, Number of Zones, Number of Zone Surfaces, Number of SubSurfaces
 Zone Summary,115,3613,2611
! <Zone Information>,Zone Name,North Axis {deg},Origin X-Coordinate {m},Origin Y-Coordinate {m},Origin Z-Coordinate {m},Centroid X-Coordinate {m},Centroid Y-Coordinate {m},Centroid Z-Coordinate {m},Type,Zone Multiplier,Zone List Multiplier,Minimum X {m},Maximum X {m},Minimum Y {m},Maximum Y {m},Minimum Z {m},Maximum Z {m},Ceiling Height {m},Volume {m3},Zone Inside Convection Algorithm {Simple-Detailed-CeilingDiffuser-TrombeWall},Zone Outside Convection Algorithm {Simple-Detailed-Tarp-MoWitt-DOE-2-BLAST}, Floor Area {m2},Exterior Gross Wall Area {m2},Exterior Net Wall Area {m2},Exterior Window Area {m2}, Number of Surfaces, Number of SubSurfaces, Number of Shading SubSurfaces,  Part of Total Building Area
 Zone Information, FLR1_SURROUNDING-OFFICE_10_FLOOR1_ROOM1,0.0,0.00,0.00,0.00,904.20,992.42,56.02,1,1,1,893.87,914.52,980.26,1004.59,54.52,57.52,3.00,841.59,TARP,DOE-2,280.53,205.54,143.88,61.66,6,16,0,Yes
 Zone Information, FLR1_SURROUNDING-OFFICE_10_FLOOR7_ROOM1,0.0,0.00,0.00,0.00,904.20,992.42,74.76,1,1,1,893.87,914.52,980.26,1004.59,72.52,76.99,4.47,1253.97,TARP,DOE-2,280.53,306.25,214.37,91.87,6,16,0,Yes
 Zone Information, FLR1_SURROUNDING-OFFICE_11_FLOOR1_ROOM1,0.0,0.00,0.00,0.00,929.42,934.28,57.32,1,1,1,920.09,941.09,918.30,943.89,55.82,58.82,3.00,904.83,TARP,DOE-2,301.61,214.85,150.39,64.45,9,18,0,Yes
 Zone Information, FLR1_SURROUNDING-OFFICE_11_FLOOR7_ROOM1,0.0,0.00,0.00,0.00,929.53,933.92,76.04,1,1,1,920.09,941.09,918.30,943.89,73.82,78.26,4.44,1339.15,TARP,DOE-2,301.61,317.98,222.58,95.39,9,18,0,Yes
 Zone Information, FLR1_SURROUNDING-OFFICE_12_FLOOR1_ROOM1,0.0,0.00,0.00,0.00,961.06,858.61,58.13,1,1,1,944.57,973.73,841.89,885.67,56.63,59.63,3.00,1745.21,TARP,DOE-2,581.74,333.92,233.75,100.18,8,26,0,Yes
 Zone Information, FLR1_SURROUNDING-OFFICE_12_FLOOR7_ROOM1,0.0,0.00,0.00,0.00,960.97,858.85,76.46,1,1,1,944.57,973.73,841.89,885.67,74.63,78.28,3.65,2123.34,TARP,DOE-2,581.74,406.27,284.39,121.88,8,26,0,Yes
 Zone Information, FLR1_SURROUNDING-OFFICE_13_FLOOR1_ROOM1,0.0,0.00,0.00,0.00,938.82,911.54,57.87,1,1,1,928.41,949.23,899.33,923.76,56.37,59.37,3.00,855.18,TARP,DOE-2,285.06,206.72,144.70,62.02,6,16,0,Yes
 Zone Information, FLR1_SURROUNDING-OFFICE_13_FLOOR7_ROOM1,0.0,0.00,0.00,0.00,938.82,911.54,76.35,1,1,1,928.41,949.23,899.33,923.76,74.37,78.32,3.95,1125.99,TARP,DOE-2,285.06,272.18,190.53,81.65,6,16,0,Yes
 Zone Information, FLR1_SURROUNDING-OFFICE_14_FLOOR1_ROOM1,0.0,0.00,0.00,0.00,946.92,892.54,57.98,1,1,1,936.53,957.31,880.36,904.77,56.48,59.48,3.00,856.16,TARP,DOE-2,285.39,206.86,144.80,62.06,6,16,0,Yes
 Zone Information, FLR1_SURROUNDING-OFFICE_14_FLOOR7_ROOM1,0.0,0.00,0.00,0.00,946.92,892.54,76.39,1,1,1,936.53,957.31,880.36,904.77,74.48,78.30,3.82,1090.18,TARP,DOE-2,285.39,263.40,184.38,79.02,6,16,0,Yes
 Zone Information, FLR1_SURROUNDING-OFFICE_15_FLOOR1_ROOM1,0.0,0.00,0.00,0.00,904.29,869.22,57.83,1,1,1,885.57,923.01,835.92,902.52,56.33,59.33,3.00,2396.70,TARP,DOE-2,798.90,475.38,332.77,142.61,6,40,0,Yes
 Zone Information, FLR1_SURROUNDING-OFFICE_15_FLOOR5_ROOM1,0.0,0.00,0.00,0.00,904.29,869.22,70.55,1,1,1,885.57,923.01,835.92,902.52,68.33,72.78,4.45,3555.10,TARP,DOE-2,798.90,705.15,493.60,211.54,6,40,0,Yes
 Zone Information, FLR1_SURROUNDING-OFFICE_16_FLOOR1_ROOM1,0.0,0.00,0.00,0.00,869.49,852.21,56.21,1,1,1,851.85,885.53,825.60,887.88,54.71,57.71,3.00,2218.22,TARP,DOE-2,739.41,444.37,311.06,133.31,7,38,0,Yes
 Zone Information, FLR1_SURROUNDING-OFFICE_16_FLOOR5_ROOM1,0.0,0.00,0.00,0.00,869.35,852.99,69.55,1,1,1,851.85,885.53,825.60,887.88,66.71,72.39,5.68,4199.83,TARP,DOE-2,739.41,841.35,588.94,252.40,7,5,0,Yes
 Zone Information, FLR1_SURROUNDING-OFFICE_17_FLOOR1_ROOM1,0.0,0.00,0.00,0.00,833.85,844.56,56.22,1,1,1,819.11,848.58,815.95,873.17,54.72,57.72,3.00,1884.27,TARP,DOE-2,628.09,407.12,284.98,122.14,6,34,0,Yes
 Zone Information, FLR1_SURROUNDING-OFFICE_17_FLOOR5_ROOM1,0.0,0.00,0.00,0.00,833.85,844.56,68.96,1,1,1,819.11,848.58,815.95,873.17,66.72,71.19,4.47,2807.57,TARP,DOE-2,628.09,606.61,424.63,181.98,6,34,0,Yes
 Zone Information, FLR1_SURROUNDING-OFFICE_18_FLOOR1_ROOM1,0.0,0.00,0.00,0.00,770.56,998.55,54.08,1,1,1,750.16,788.74,966.28,1027.71,52.58,55.58,3.00,2884.88,TARP,DOE-2,961.63,548.73,384.11,164.62,24,48,0,Yes
 Zone Information, FLR1_SURROUNDING-OFFICE_18_FLOOR3_ROOM1,0.0,0.00,0.00,0.00,770.43,998.38,61.37,1,1,1,750.16,788.74,966.28,1027.71,58.58,64.16,5.58,5365.87,TARP,DOE-2,961.63,1020.63,714.44,306.19,24,22,0,Yes
 Zone Information, FLR1_SURROUNDING-OFFICE_19_FLOOR1_ROOM1,0.0,0.00,0.00,0.00,741.31,1075.54,53.52,1,1,1,713.54,764.39,1032.47,1118.53,52.02,55.02,3.00,4135.61,TARP,DOE-2,1378.54,839.26,587.48,251.78,31,69,0,Yes
 Zone Information, FLR1_SURROUNDING-OFFICE_19_FLOOR3_ROOM1,0.0,0.00,0.00,0.00,741.11,1075.57,60.41,1,1,1,713.54,764.39,1032.47,1118.53,58.02,62.80,4.78,6589.41,TARP,DOE-2,1378.54,1337.22,936.06,401.17,31,69,0,Yes
 Zone Information, FLR1_SURROUNDING-OFFICE_1_FLOOR1_ROOM1,0.0,0.00,0.00,0.00,710.44,1154.83,54.03,1,1,1,686.19,729.67,1121.94,1186.78,52.53,55.53,3.00,3377.78,TARP,DOE-2,1125.93,570.13,399.09,171.04,24,50,0,Yes
 Zone Information, FLR1_SURROUNDING-OFFICE_1_FLOOR2_ROOM1,0.0,0.00,0.00,0.00,710.22,1154.87,58.39,1,1,1,686.19,729.67,1121.94,1186.78,55.53,61.25,5.72,6440.30,TARP,DOE-2,1125.93,1087.06,760.94,326.12,24,22,0,Yes
 Zone Information, FLR1_SURROUNDING-OFFICE_20_FLOOR1_ROOM1,0.0,0.00,0.00,0.00,800.21,929.76,64.69,1,1,1,784.23,815.82,913.22,943.30,63.19,66.19,3.00,2010.12,TARP,DOE-2,670.04,323.25,226.27,96.97,23,34,0,Yes
 Zone Information, FLR1_SURROUNDING-OFFICE_20_FLOOR3_ROOM1,0.0,0.00,0.00,0.00,800.19,929.58,71.84,1,1,1,784.23,815.82,913.22,943.30,69.19,74.49,5.30,3551.22,TARP,DOE-2,670.04,571.07,399.75,171.32,23,34,0,Yes
 Zone Information, FLR1_SURROUNDING-OFFICE_2_FLOOR1_ROOM1,0.0,0.00,0.00,0.00,862.02,1091.03,54.29,1,1,1,850.24,871.51,1080.60,1106.83,52.79,55.79,3.00,928.82,TARP,DOE-2,309.61,217.42,152.19,65.22,8,18,0,Yes
 Zone Information, FLR1_SURROUNDING-OFFICE_2_FLOOR7_ROOM1,0.0,0.00,0.00,0.00,861.91,1091.29,72.94,1,1,1,850.24,871.51,1080.60,1106.83,70.79,75.09,4.30,1331.31,TARP,DOE-2,309.61,311.63,218.14,93.49,8,18,0,Yes
 Zone Information, FLR1_SURROUNDING-OFFICE_3_FLOOR1_ROOM1,0.0,0.00,0.00,0.00,832.55,1160.05,54.03,1,1,1,823.66,844.91,1142.89,1169.00,52.53,55.53,3.00,926.30,TARP,DOE-2,308.77,222.92,156.04,66.88,10,20,0,Yes
 Zone Information, FLR1_SURROUNDING-OFFICE_3_FLOOR7_ROOM1,0.0,0.00,0.00,0.00,832.74,1159.60,72.79,1,1,1,823.66,844.91,1142.89,1169.00,70.53,75.06,4.53,1398.72,TARP,DOE-2,308.77,336.61,235.63,100.98,10,20,0,Yes
 Zone Information, FLR1_SURROUNDING-OFFICE_4_FLOOR1_ROOM1,0.0,0.00,0.00,0.00,852.00,1114.47,54.32,1,1,1,841.39,862.60,1101.50,1127.35,52.82,55.82,3.00,905.84,TARP,DOE-2,301.95,215.33,150.73,64.60,6,18,0,Yes
 Zone Information, FLR1_SURROUNDING-OFFICE_4_FLOOR7_ROOM1,0.0,0.00,0.00,0.00,852.00,1114.47,72.94,1,1,1,841.39,862.60,1101.50,1127.35,70.82,75.07,4.25,1283.27,TARP,DOE-2,301.95,305.06,213.54,91.52,6,18,0,Yes
 Zone Information, FLR1_SURROUNDING-OFFICE_5_FLOOR1_ROOM1,0.0,0.00,0.00,0.00,843.18,1135.16,54.20,1,1,1,832.55,853.84,1122.21,1148.20,52.70,55.70,3.00,911.86,TARP,DOE-2,303.95,216.26,151.38,64.88,6,18,0,Yes
 Zone Information, FLR1_SURROUNDING-OFFICE_5_FLOOR7_ROOM1,0.0,0.00,0.00,0.00,843.18,1135.16,72.87,1,1,1,832.55,853.84,1122.21,1148.20,70.70,75.05,4.35,1322.19,TARP,DOE-2,303.95,313.58,219.50,94.07,6,18,0,Yes
 Zone Information, FLR1_SURROUNDING-OFFICE_6_FLOOR1_ROOM1,0.0,0.00,0.00,0.00,887.85,1030.50,55.20,1,1,1,877.50,898.20,1018.36,1042.64,53.70,56.70,3.00,844.44,TARP,DOE-2,281.48,205.65,143.96,61.70,6,16,0,Yes
 Zone Information, FLR1_SURROUNDING-OFFICE_6_FLOOR7_ROOM1,0.0,0.00,0.00,0.00,887.85,1030.50,74.30,1,1,1,877.50,898.20,1018.36,1042.64,71.70,76.89,5.19,1460.88,TARP,DOE-2,281.48,355.78,249.04,106.73,6,16,0,Yes
 Zone Information, FLR1_SURROUNDING-OFFICE_7_FLOOR1_ROOM1,0.0,0.00,0.00,0.00,913.47,970.78,56.47,1,1,1,902.08,922.78,961.04,985.54,54.97,57.97,3.00,861.43,TARP,DOE-2,287.14,207.06,144.94,62.12,8,17,0,Yes
 Zone Information, FLR1_SURROUNDING-OFFICE_7_FLOOR7_ROOM1,0.0,0.00,0.00,0.00,913.39,970.99,75.00,1,1,1,902.08,922.78,961.04,985.54,72.97,77.02,4.05,1162.93,TARP,DOE-2,287.14,279.52,195.67,83.86,8,17,0,Yes
 Zone Information, FLR1_SURROUNDING-OFFICE_8_FLOOR1_ROOM1,0.0,0.00,0.00,0.00,879.67,1049.60,59.58,1,1,1,869.28,890.05,1037.33,1061.89,58.08,61.08,3.00,854.74,TARP,DOE-2,284.91,207.20,145.04,62.16,6,16,0,Yes
 Zone Information, FLR1_SURROUNDING-OFFICE_8_FLOOR6_ROOM1,0.0,0.00,0.00,0.00,879.67,1049.60,75.01,1,1,1,869.28,890.05,1037.33,1061.89,73.08,76.94,3.86,1099.76,TARP,DOE-2,284.91,266.60,186.62,79.98,6,16,0,Yes
 Zone Information, FLR1_SURROUNDING-OFFICE_9_FLOOR1_ROOM1,0.0,0.00,0.00,0.00,896.01,1011.49,59.66,1,1,1,885.63,906.36,999.26,1023.69,58.16,61.16,3.00,849.01,TARP,DOE-2,283.00,206.41,144.49,61.92,6,16,0,Yes
 Zone Information, FLR1_SURROUNDING-OFFICE_9_FLOOR6_ROOM1,0.0,0.00,0.00,0.00,896.01,1011.49,75.09,1,1,1,885.63,906.36,999.26,1023.69,73.16,77.01,3.85,1089.56,TARP,DOE-2,283.00,264.89,185.42,79.47,6,16,0,Yes
 Zone Information, FLR2_SURROUNDING-OFFICE_10_FLOOR1_ROOM1,0.0,0.00,0.00,0.00,904.20,992.42,59.02,1,1,1,893.87,914.52,980.26,1004.59,57.52,60.52,3.00,841.59,TARP,DOE-2,280.53,205.54,143.88,61.66,6,16,0,Yes
 Zone Information, FLR2_SURROUNDING-OFFICE_11_FLOOR1_ROOM1,0.0,0.00,0.00,0.00,929.42,934.28,60.32,1,1,1,920.09,941.09,918.30,943.89,58.82,61.82,3.00,904.83,TARP,DOE-2,301.61,214.85,150.39,64.45,9,18,0,Yes
 Zone Information, FLR2_SURROUNDING-OFFICE_12_FLOOR1_ROOM1,0.0,0.00,0.00,0.00,961.06,858.61,61.13,1,1,1,944.57,973.73,841.89,885.67,59.63,62.63,3.00,1745.21,TARP,DOE-2,581.74,333.92,233.75,100.18,8,26,0,Yes
 Zone Information, FLR2_SURROUNDING-OFFICE_13_FLOOR1_ROOM1,0.0,0.00,0.00,0.00,938.82,911.54,60.87,1,1,1,928.41,949.23,899.33,923.76,59.37,62.37,3.00,855.18,TARP,DOE-2,285.06,206.72,144.70,62.02,6,16,0,Yes
 Zone Information, FLR2_SURROUNDING-OFFICE_14_FLOOR1_ROOM1,0.0,0.00,0.00,0.00,946.92,892.54,60.98,1,1,1,936.53,957.31,880.36,904.77,59.48,62.48,3.00,856.16,TARP,DOE-2,285.39,206.86,144.80,62.06,6,16,0,Yes
 Zone Information, FLR2_SURROUNDING-OFFICE_15_FLOOR1_ROOM1,0.0,0.00,0.00,0.00,904.29,869.22,60.83,1,1,1,885.57,923.01,835.92,902.52,59.33,62.33,3.00,2396.70,TARP,DOE-2,798.90,475.38,332.77,142.61,6,40,0,Yes
 Zone Information, FLR2_SURROUNDING-OFFICE_16_FLOOR1_ROOM1,0.0,0.00,0.00,0.00,869.49,852.21,59.21,1,1,1,851.85,885.53,825.60,887.88,57.71,60.71,3.00,2218.22,TARP,DOE-2,739.41,444.37,311.06,133.31,7,38,0,Yes
 Zone Information, FLR2_SURROUNDING-OFFICE_17_FLOOR1_ROOM1,0.0,0.00,0.00,0.00,833.85,844.56,59.22,1,1,1,819.11,848.58,815.95,873.17,57.72,60.72,3.00,1884.27,TARP,DOE-2,628.09,407.12,284.98,122.14,6,34,0,Yes
 Zone Information, FLR2_SURROUNDING-OFFICE_18_FLOOR1_ROOM1,0.0,0.00,0.00,0.00,770.56,998.55,57.08,1,1,1,750.16,788.74,966.28,1027.71,55.58,58.58,3.00,2884.88,TARP,DOE-2,961.63,548.73,384.11,164.62,24,48,0,Yes
 Zone Information, FLR2_SURROUNDING-OFFICE_19_FLOOR1_ROOM1,0.0,0.00,0.00,0.00,741.31,1075.54,56.52,1,1,1,713.54,764.39,1032.47,1118.53,55.02,58.02,3.00,4135.61,TARP,DOE-2,1378.54,839.26,587.48,251.78,31,69,0,Yes
 Zone Information, FLR2_SURROUNDING-OFFICE_20_FLOOR1_ROOM1,0.0,0.00,0.00,0.00,800.21,929.76,67.69,1,1,1,784.23,815.82,913.22,943.30,66.19,69.19,3.00,2010.12,TARP,DOE-2,670.04,323.25,226.27,96.97,23,34,0,Yes
 Zone Information, FLR2_SURROUNDING-OFFICE_2_FLOOR1_ROOM1,0.0,0.00,0.00,0.00,862.02,1091.03,57.29,1,1,1,850.24,871.51,1080.60,1106.83,55.79,58.79,3.00,928.82,TARP,DOE-2,309.61,217.42,152.19,65.22,8,18,0,Yes
 Zone Information, FLR2_SURROUNDING-OFFICE_3_FLOOR1_ROOM1,0.0,0.00,0.00,0.00,832.55,1160.05,57.03,1,1,1,823.66,844.91,1142.89,1169.00,55.53,58.53,3.00,926.30,TARP,DOE-2,308.77,222.92,156.04,66.88,10,20,0,Yes
 Zone Information, FLR2_SURROUNDING-OFFICE_4_FLOOR1_ROOM1,0.0,0.00,0.00,0.00,852.00,1114.47,57.32,1,1,1,841.39,862.60,1101.50,1127.35,55.82,58.82,3.00,905.84,TARP,DOE-2,301.95,215.33,150.73,64.60,6,18,0,Yes
 Zone Information, FLR2_SURROUNDING-OFFICE_5_FLOOR1_ROOM1,0.0,0.00,0.00,0.00,843.18,1135.16,57.20,1,1,1,832.55,853.84,1122.21,1148.20,55.70,58.70,3.00,911.86,TARP,DOE-2,303.95,216.26,151.38,64.88,6,18,0,Yes
 Zone Information, FLR2_SURROUNDING-OFFICE_6_FLOOR1_ROOM1,0.0,0.00,0.00,0.00,887.85,1030.50,58.20,1,1,1,877.50,898.20,1018.36,1042.64,56.70,59.70,3.00,844.44,TARP,DOE-2,281.48,205.65,143.96,61.70,6,16,0,Yes
 Zone Information, FLR2_SURROUNDING-OFFICE_7_FLOOR1_ROOM1,0.0,0.00,0.00,0.00,913.47,970.78,59.47,1,1,1,902.08,922.78,961.04,985.54,57.97,60.97,3.00,861.43,TARP,DOE-2,287.14,207.06,144.94,62.12,8,17,0,Yes
 Zone Information, FLR2_SURROUNDING-OFFICE_8_FLOOR1_ROOM1,0.0,0.00,0.00,0.00,879.67,1049.60,62.58,1,1,1,869.28,890.05,1037.33,1061.89,61.08,64.08,3.00,854.74,TARP,DOE-2,284.91,207.20,145.04,62.16,6,16,0,Yes
 Zone Information, FLR2_SURROUNDING-OFFICE_9_FLOOR1_ROOM1,0.0,0.00,0.00,0.00,896.01,1011.49,62.66,1,1,1,885.63,906.36,999.26,1023.69,61.16,64.16,3.00,849.01,TARP,DOE-2,283.00,206.41,144.49,61.92,6,16,0,Yes
 Zone Information, FLR3_SURROUNDING-OFFICE_10_FLOOR1_ROOM1,0.0,0.00,0.00,0.00,904.20,992.42,62.02,1,1,1,893.87,914.52,980.26,1004.59,60.52,63.52,3.00,841.59,TARP,DOE-2,280.53,205.54,143.88,61.66,6,16,0,Yes
 Zone Information, FLR3_SURROUNDING-OFFICE_11_FLOOR1_ROOM1,0.0,0.00,0.00,0.00,929.42,934.28,63.32,1,1,1,920.09,941.09,918.30,943.89,61.82,64.82,3.00,904.83,TARP,DOE-2,301.61,214.85,150.39,64.45,9,18,0,Yes
 Zone Information, FLR3_SURROUNDING-OFFICE_12_FLOOR1_ROOM1,0.0,0.00,0.00,0.00,961.06,858.61,64.13,1,1,1,944.57,973.73,841.89,885.67,62.63,65.63,3.00,1745.21,TARP,DOE-2,581.74,333.92,233.75,100.18,8,26,0,Yes
 Zone Information, FLR3_SURROUNDING-OFFICE_13_FLOOR1_ROOM1,0.0,0.00,0.00,0.00,938.82,911.54,63.87,1,1,1,928.41,949.23,899.33,923.76,62.37,65.37,3.00,855.18,TARP,DOE-2,285.06,206.72,144.70,62.02,6,16,0,Yes
 Zone Information, FLR3_SURROUNDING-OFFICE_14_FLOOR1_ROOM1,0.0,0.00,0.00,0.00,946.92,892.54,63.98,1,1,1,936.53,957.31,880.36,904.77,62.48,65.48,3.00,856.16,TARP,DOE-2,285.39,206.86,144.80,62.06,6,16,0,Yes
 Zone Information, FLR3_SURROUNDING-OFFICE_15_FLOOR1_ROOM1,0.0,0.00,0.00,0.00,904.29,869.22,63.83,1,1,1,885.57,923.01,835.92,902.52,62.33,65.33,3.00,2396.70,TARP,DOE-2,798.90,475.38,332.77,142.61,6,40,0,Yes
 Zone Information, FLR3_SURROUNDING-OFFICE_16_FLOOR1_ROOM1,0.0,0.00,0.00,0.00,869.49,852.21,62.21,1,1,1,851.85,885.53,825.60,887.88,60.71,63.71,3.00,2218.22,TARP,DOE-2,739.41,444.37,311.06,133.31,7,38,0,Yes
 Zone Information, FLR3_SURROUNDING-OFFICE_17_FLOOR1_ROOM1,0.0,0.00,0.00,0.00,833.85,844.56,62.22,1,1,1,819.11,848.58,815.95,873.17,60.72,63.72,3.00,1884.27,TARP,DOE-2,628.09,407.12,284.98,122.14,6,34,0,Yes
 Zone Information, FLR3_SURROUNDING-OFFICE_2_FLOOR1_ROOM1,0.0,0.00,0.00,0.00,862.02,1091.03,60.29,1,1,1,850.24,871.51,1080.60,1106.83,58.79,61.79,3.00,928.82,TARP,DOE-2,309.61,217.42,152.19,65.22,8,18,0,Yes
 Zone Information, FLR3_SURROUNDING-OFFICE_3_FLOOR1_ROOM1,0.0,0.00,0.00,0.00,832.55,1160.05,60.03,1,1,1,823.66,844.91,1142.89,1169.00,58.53,61.53,3.00,926.30,TARP,DOE-2,308.77,222.92,156.04,66.88,10,20,0,Yes
 Zone Information, FLR3_SURROUNDING-OFFICE_4_FLOOR1_ROOM1,0.0,0.00,0.00,0.00,852.00,1114.47,60.32,1,1,1,841.39,862.60,1101.50,1127.35,58.82,61.82,3.00,905.84,TARP,DOE-2,301.95,215.33,150.73,64.60,6,18,0,Yes
 Zone Information, FLR3_SURROUNDING-OFFICE_5_FLOOR1_ROOM1,0.0,0.00,0.00,0.00,843.18,1135.16,60.20,1,1,1,832.55,853.84,1122.21,1148.20,58.70,61.70,3.00,911.86,TARP,DOE-2,303.95,216.26,151.38,64.88,6,18,0,Yes
 Zone Information, FLR3_SURROUNDING-OFFICE_6_FLOOR1_ROOM1,0.0,0.00,0.00,0.00,887.85,1030.50,61.20,1,1,1,877.50,898.20,1018.36,1042.64,59.70,62.70,3.00,844.44,TARP,DOE-2,281.48,205.65,143.96,61.70,6,16,0,Yes
 Zone Information, FLR3_SURROUNDING-OFFICE_7_FLOOR1_ROOM1,0.0,0.00,0.00,0.00,913.47,970.78,62.47,1,1,1,902.08,922.78,961.04,985.54,60.97,63.97,3.00,861.43,TARP,DOE-2,287.14,207.06,144.94,62.12,8,17,0,Yes
 Zone Information, FLR3_SURROUNDING-OFFICE_8_FLOOR1_ROOM1,0.0,0.00,0.00,0.00,879.67,1049.60,65.58,1,1,1,869.28,890.05,1037.33,1061.89,64.08,67.08,3.00,854.74,TARP,DOE-2,284.91,207.20,145.04,62.16,6,16,0,Yes
 Zone Information, FLR3_SURROUNDING-OFFICE_9_FLOOR1_ROOM1,0.0,0.00,0.00,0.00,896.01,1011.49,65.66,1,1,1,885.63,906.36,999.26,1023.69,64.16,67.16,3.00,849.01,TARP,DOE-2,283.00,206.41,144.49,61.92,6,16,0,Yes
 Zone Information, FLR4_SURROUNDING-OFFICE_10_FLOOR1_ROOM1,0.0,0.00,0.00,0.00,904.20,992.42,65.02,1,1,1,893.87,914.52,980.26,1004.59,63.52,66.52,3.00,841.59,TARP,DOE-2,280.53,205.54,143.88,61.66,6,16,0,Yes
 Zone Information, FLR4_SURROUNDING-OFFICE_11_FLOOR1_ROOM1,0.0,0.00,0.00,0.00,929.42,934.28,66.32,1,1,1,920.09,941.09,918.30,943.89,64.82,67.82,3.00,904.83,TARP,DOE-2,301.61,214.85,150.39,64.45,9,18,0,Yes
 Zone Information, FLR4_SURROUNDING-OFFICE_12_FLOOR1_ROOM1,0.0,0.00,0.00,0.00,961.06,858.61,67.13,1,1,1,944.57,973.73,841.89,885.67,65.63,68.63,3.00,1745.21,TARP,DOE-2,581.74,333.92,233.75,100.18,8,26,0,Yes
 Zone Information, FLR4_SURROUNDING-OFFICE_13_FLOOR1_ROOM1,0.0,0.00,0.00,0.00,938.82,911.54,66.87,1,1,1,928.41,949.23,899.33,923.76,65.37,68.37,3.00,855.18,TARP,DOE-2,285.06,206.72,144.70,62.02,6,16,0,Yes
 Zone Information, FLR4_SURROUNDING-OFFICE_14_FLOOR1_ROOM1,0.0,0.00,0.00,0.00,946.92,892.54,66.98,1,1,1,936.53,957.31,880.36,904.77,65.48,68.48,3.00,856.16,TARP,DOE-2,285.39,206.86,144.80,62.06,6,16,0,Yes
 Zone Information, FLR4_SURROUNDING-OFFICE_15_FLOOR1_ROOM1,0.0,0.00,0.00,0.00,904.29,869.22,66.83,1,1,1,885.57,923.01,835.92,902.52,65.33,68.33,3.00,2396.70,TARP,DOE-2,798.90,475.38,332.77,142.61,6,40,0,Yes
 Zone Information, FLR4_SURROUNDING-OFFICE_16_FLOOR1_ROOM1,0.0,0.00,0.00,0.00,869.49,852.21,65.21,1,1,1,851.85,885.53,825.60,887.88,63.71,66.71,3.00,2218.22,TARP,DOE-2,739.41,444.37,311.06,133.31,7,38,0,Yes
 Zone Information, FLR4_SURROUNDING-OFFICE_17_FLOOR1_ROOM1,0.0,0.00,0.00,0.00,833.85,844.56,65.22,1,1,1,819.11,848.58,815.95,873.17,63.72,66.72,3.00,1884.27,TARP,DOE-2,628.09,407.12,284.98,122.14,6,34,0,Yes
 Zone Information, FLR4_SURROUNDING-OFFICE_2_FLOOR1_ROOM1,0.0,0.00,0.00,0.00,862.02,1091.03,63.29,1,1,1,850.24,871.51,1080.60,1106.83,61.79,64.79,3.00,928.82,TARP,DOE-2,309.61,217.42,152.19,65.22,8,18,0,Yes
 Zone Information, FLR4_SURROUNDING-OFFICE_3_FLOOR1_ROOM1,0.0,0.00,0.00,0.00,832.55,1160.05,63.03,1,1,1,823.66,844.91,1142.89,1169.00,61.53,64.53,3.00,926.30,TARP,DOE-2,308.77,222.92,156.04,66.88,10,20,0,Yes
 Zone Information, FLR4_SURROUNDING-OFFICE_4_FLOOR1_ROOM1,0.0,0.00,0.00,0.00,852.00,1114.47,63.32,1,1,1,841.39,862.60,1101.50,1127.35,61.82,64.82,3.00,905.84,TARP,DOE-2,301.95,215.33,150.73,64.60,6,18,0,Yes
 Zone Information, FLR4_SURROUNDING-OFFICE_5_FLOOR1_ROOM1,0.0,0.00,0.00,0.00,843.18,1135.16,63.20,1,1,1,832.55,853.84,1122.21,1148.20,61.70,64.70,3.00,911.86,TARP,DOE-2,303.95,216.26,151.38,64.88,6,18,0,Yes
 Zone Information, FLR4_SURROUNDING-OFFICE_6_FLOOR1_ROOM1,0.0,0.00,0.00,0.00,887.85,1030.50,64.20,1,1,1,877.50,898.20,1018.36,1042.64,62.70,65.70,3.00,844.44,TARP,DOE-2,281.48,205.65,143.96,61.70,6,16,0,Yes
 Zone Information, FLR4_SURROUNDING-OFFICE_7_FLOOR1_ROOM1,0.0,0.00,0.00,0.00,913.47,970.78,65.47,1,1,1,902.08,922.78,961.04,985.54,63.97,66.97,3.00,861.43,TARP,DOE-2,287.14,207.06,144.94,62.12,8,17,0,Yes
 Zone Information, FLR4_SURROUNDING-OFFICE_8_FLOOR1_ROOM1,0.0,0.00,0.00,0.00,879.67,1049.60,68.58,1,1,1,869.28,890.05,1037.33,1061.89,67.08,70.08,3.00,854.74,TARP,DOE-2,284.91,207.20,145.04,62.16,6,16,0,Yes
 Zone Information, FLR4_SURROUNDING-OFFICE_9_FLOOR1_ROOM1,0.0,0.00,0.00,0.00,896.01,1011.49,68.66,1,1,1,885.63,906.36,999.26,1023.69,67.16,70.16,3.00,849.01,TARP,DOE-2,283.00,206.41,144.49,61.92,6,16,0,Yes
 Zone Information, FLR5_SURROUNDING-OFFICE_10_FLOOR1_ROOM1,0.0,0.00,0.00,0.00,904.20,992.42,68.02,1,1,1,893.87,914.52,980.26,1004.59,66.52,69.52,3.00,841.59,TARP,DOE-2,280.53,205.54,143.88,61.66,6,16,0,Yes
 Zone Information, FLR5_SURROUNDING-OFFICE_11_FLOOR1_ROOM1,0.0,0.00,0.00,0.00,929.42,934.28,69.32,1,1,1,920.09,941.09,918.30,943.89,67.82,70.82,3.00,904.83,TARP,DOE-2,301.61,214.85,150.39,64.45,9,18,0,Yes
 Zone Information, FLR5_SURROUNDING-OFFICE_12_FLOOR1_ROOM1,0.0,0.00,0.00,0.00,961.06,858.61,70.13,1,1,1,944.57,973.73,841.89,885.67,68.63,71.63,3.00,1745.21,TARP,DOE-2,581.74,333.92,233.75,100.18,8,26,0,Yes
 Zone Information, FLR5_SURROUNDING-OFFICE_13_FLOOR1_ROOM1,0.0,0.00,0.00,0.00,938.82,911.54,69.87,1,1,1,928.41,949.23,899.33,923.76,68.37,71.37,3.00,855.18,TARP,DOE-2,285.06,206.72,144.70,62.02,6,16,0,Yes
 Zone Information, FLR5_SURROUNDING-OFFICE_14_FLOOR1_ROOM1,0.0,0.00,0.00,0.00,946.92,892.54,69.98,1,1,1,936.53,957.31,880.36,904.77,68.48,71.48,3.00,856.16,TARP,DOE-2,285.39,206.86,144.80,62.06,6,16,0,Yes
 Zone Information, FLR5_SURROUNDING-OFFICE_2_FLOOR1_ROOM1,0.0,0.00,0.00,0.00,862.02,1091.03,66.29,1,1,1,850.24,871.51,1080.60,1106.83,64.79,67.79,3.00,928.82,TARP,DOE-2,309.61,217.42,152.19,65.22,8,18,0,Yes
 Zone Information, FLR5_SURROUNDING-OFFICE_3_FLOOR1_ROOM1,0.0,0.00,0.00,0.00,832.55,1160.05,66.03,1,1,1,823.66,844.91,1142.89,1169.00,64.53,67.53,3.00,926.30,TARP,DOE-2,308.77,222.92,156.04,66.88,10,20,0,Yes
 Zone Information, FLR5_SURROUNDING-OFFICE_4_FLOOR1_ROOM1,0.0,0.00,0.00,0.00,852.00,1114.47,66.32,1,1,1,841.39,862.60,1101.50,1127.35,64.82,67.82,3.00,905.84,TARP,DOE-2,301.95,215.33,150.73,64.60,6,18,0,Yes
 Zone Information, FLR5_SURROUNDING-OFFICE_5_FLOOR1_ROOM1,0.0,0.00,0.00,0.00,843.18,1135.16,66.20,1,1,1,832.55,853.84,1122.21,1148.20,64.70,67.70,3.00,911.86,TARP,DOE-2,303.95,216.26,151.38,64.88,6,18,0,Yes
 Zone Information, FLR5_SURROUNDING-OFFICE_6_FLOOR1_ROOM1,0.0,0.00,0.00,0.00,887.85,1030.50,67.20,1,1,1,877.50,898.20,1018.36,1042.64,65.70,68.70,3.00,844.44,TARP,DOE-2,281.48,205.65,143.96,61.70,6,16,0,Yes
 Zone Information, FLR5_SURROUNDING-OFFICE_7_FLOOR1_ROOM1,0.0,0.00,0.00,0.00,913.47,970.78,68.47,1,1,1,902.08,922.78,961.04,985.54,66.97,69.97,3.00,861.43,TARP,DOE-2,287.14,207.06,144.94,62.12,8,17,0,Yes
 Zone Information, FLR5_SURROUNDING-OFFICE_8_FLOOR1_ROOM1,0.0,0.00,0.00,0.00,879.67,1049.60,71.58,1,1,1,869.28,890.05,1037.33,1061.89,70.08,73.08,3.00,854.74,TARP,DOE-2,284.91,207.20,145.04,62.16,6,16,0,Yes
 Zone Information, FLR5_SURROUNDING-OFFICE_9_FLOOR1_ROOM1,0.0,0.00,0.00,0.00,896.01,1011.49,71.66,1,1,1,885.63,906.36,999.26,1023.69,70.16,73.16,3.00,849.01,TARP,DOE-2,283.00,206.41,144.49,61.92,6,16,0,Yes
 Zone Information, FLR6_SURROUNDING-OFFICE_10_FLOOR1_ROOM1,0.0,0.00,0.00,0.00,904.20,992.42,71.02,1,1,1,893.87,914.52,980.26,1004.59,69.52,72.52,3.00,841.59,TARP,DOE-2,280.53,205.54,143.88,61.66,6,16,0,Yes
 Zone Information, FLR6_SURROUNDING-OFFICE_11_FLOOR1_ROOM1,0.0,0.00,0.00,0.00,929.42,934.28,72.32,1,1,1,920.09,941.09,918.30,943.89,70.82,73.82,3.00,904.83,TARP,DOE-2,301.61,214.85,150.39,64.45,9,18,0,Yes
 Zone Information, FLR6_SURROUNDING-OFFICE_12_FLOOR1_ROOM1,0.0,0.00,0.00,0.00,961.06,858.61,73.13,1,1,1,944.57,973.73,841.89,885.67,71.63,74.63,3.00,1745.21,TARP,DOE-2,581.74,333.92,233.75,100.18,8,26,0,Yes
 Zone Information, FLR6_SURROUNDING-OFFICE_13_FLOOR1_ROOM1,0.0,0.00,0.00,0.00,938.82,911.54,72.87,1,1,1,928.41,949.23,899.33,923.76,71.37,74.37,3.00,855.18,TARP,DOE-2,285.06,206.72,144.70,62.02,6,16,0,Yes
 Zone Information, FLR6_SURROUNDING-OFFICE_14_FLOOR1_ROOM1,0.0,0.00,0.00,0.00,946.92,892.54,72.98,1,1,1,936.53,957.31,880.36,904.77,71.48,74.48,3.00,856.16,TARP,DOE-2,285.39,206.86,144.80,62.06,6,16,0,Yes
 Zone Information, FLR6_SURROUNDING-OFFICE_2_FLOOR1_ROOM1,0.0,0.00,0.00,0.00,862.02,1091.03,69.29,1,1,1,850.24,871.51,1080.60,1106.83,67.79,70.79,3.00,928.82,TARP,DOE-2,309.61,217.42,152.19,65.22,8,18,0,Yes
 Zone Information, FLR6_SURROUNDING-OFFICE_3_FLOOR1_ROOM1,0.0,0.00,0.00,0.00,832.55,1160.05,69.03,1,1,1,823.66,844.91,1142.89,1169.00,67.53,70.53,3.00,926.30,TARP,DOE-2,308.77,222.92,156.04,66.88,10,20,0,Yes
 Zone Information, FLR6_SURROUNDING-OFFICE_4_FLOOR1_ROOM1,0.0,0.00,0.00,0.00,852.00,1114.47,69.32,1,1,1,841.39,862.60,1101.50,1127.35,67.82,70.82,3.00,905.84,TARP,DOE-2,301.95,215.33,150.73,64.60,6,18,0,Yes
 Zone Information, FLR6_SURROUNDING-OFFICE_5_FLOOR1_ROOM1,0.0,0.00,0.00,0.00,843.18,1135.16,69.20,1,1,1,832.55,853.84,1122.21,1148.20,67.70,70.70,3.00,911.86,TARP,DOE-2,303.95,216.26,151.38,64.88,6,18,0,Yes
 Zone Information, FLR6_SURROUNDING-OFFICE_6_FLOOR1_ROOM1,0.0,0.00,0.00,0.00,887.85,1030.50,70.20,1,1,1,877.50,898.20,1018.36,1042.64,68.70,71.70,3.00,844.44,TARP,DOE-2,281.48,205.65,143.96,61.70,6,16,0,Yes
 Zone Information, FLR6_SURROUNDING-OFFICE_7_FLOOR1_ROOM1,0.0,0.00,0.00,0.00,913.47,970.78,71.47,1,1,1,902.08,922.78,961.04,985.54,69.97,72.97,3.00,861.43,TARP,DOE-2,287.14,207.06,144.94,62.12,8,17,0,Yes
! <Zone Internal Gains Nominal>,Zone Name, Floor Area {m2},# Occupants,Area per Occupant {m2/person},Occupant per Area {person/m2},Interior Lighting {W/m2},Electric Load {W/m2},Gas Load {W/m2},Other Load {W/m2},Hot Water Eq {W/m2},Steam Equipment {W/m2},Sum Loads per Area {W/m2},Outdoor Controlled Baseboard Heat
 Zone Internal Gains Nominal, FLR1_SURROUNDING-OFFICE_10_FLOOR1_ROOM1,280.53,20.0,14.048,7.118E-002,10.006,7.544,0.000,0.000,0.000,0.000,17.550,No
 Zone Internal Gains Nominal, FLR1_SURROUNDING-OFFICE_10_FLOOR7_ROOM1,280.53,20.0,14.048,7.118E-002,10.006,7.544,0.000,0.000,0.000,0.000,17.550,No
 Zone Internal Gains Nominal, FLR1_SURROUNDING-OFFICE_11_FLOOR1_ROOM1,301.61,21.5,14.048,7.118E-002,10.006,7.544,0.000,0.000,0.000,0.000,17.550,No
 Zone Internal Gains Nominal, FLR1_SURROUNDING-OFFICE_11_FLOOR7_ROOM1,301.61,21.5,14.048,7.118E-002,10.006,7.544,0.000,0.000,0.000,0.000,17.550,No
 Zone Internal Gains Nominal, FLR1_SURROUNDING-OFFICE_12_FLOOR1_ROOM1,581.74,41.4,14.048,7.118E-002,10.006,7.544,0.000,0.000,0.000,0.000,17.550,No
 Zone Internal Gains Nominal, FLR1_SURROUNDING-OFFICE_12_FLOOR7_ROOM1,581.74,41.4,14.048,7.118E-002,10.006,7.544,0.000,0.000,0.000,0.000,17.550,No
 Zone Internal Gains Nominal, FLR1_SURROUNDING-OFFICE_13_FLOOR1_ROOM1,285.06,20.3,14.048,7.118E-002,10.006,7.544,0.000,0.000,0.000,0.000,17.550,No
 Zone Internal Gains Nominal, FLR1_SURROUNDING-OFFICE_13_FLOOR7_ROOM1,285.06,20.3,14.048,7.118E-002,10.006,7.544,0.000,0.000,0.000,0.000,17.550,No
 Zone Internal Gains Nominal, FLR1_SURROUNDING-OFFICE_14_FLOOR1_ROOM1,285.39,20.3,14.048,7.118E-002,10.006,7.544,0.000,0.000,0.000,0.000,17.550,No
 Zone Internal Gains Nominal, FLR1_SURROUNDING-OFFICE_14_FLOOR7_ROOM1,285.39,20.3,14.048,7.118E-002,10.006,7.544,0.000,0.000,0.000,0.000,17.550,No
 Zone Internal Gains Nominal, FLR1_SURROUNDING-OFFICE_15_FLOOR1_ROOM1,798.90,56.9,14.048,7.118E-002,10.006,7.544,0.000,0.000,0.000,0.000,17.550,No
 Zone Internal Gains Nominal, FLR1_SURROUNDING-OFFICE_15_FLOOR5_ROOM1,798.90,56.9,14.048,7.118E-002,10.006,7.544,0.000,0.000,0.000,0.000,17.550,No
 Zone Internal Gains Nominal, FLR1_SURROUNDING-OFFICE_16_FLOOR1_ROOM1,739.41,52.6,14.048,7.118E-002,10.006,7.544,0.000,0.000,0.000,0.000,17.550,No
 Zone Internal Gains Nominal, FLR1_SURROUNDING-OFFICE_16_FLOOR5_ROOM1,739.41,52.6,14.048,7.118E-002,10.006,7.544,0.000,0.000,0.000,0.000,17.550,No
 Zone Internal Gains Nominal, FLR1_SURROUNDING-OFFICE_17_FLOOR1_ROOM1,628.09,44.7,14.048,7.118E-002,10.006,7.544,0.000,0.000,0.000,0.000,17.550,No
 Zone Internal Gains Nominal, FLR1_SURROUNDING-OFFICE_17_FLOOR5_ROOM1,628.09,44.7,14.048,7.118E-002,10.006,7.544,0.000,0.000,0.000,0.000,17.550,No
 Zone Internal Gains Nominal, FLR1_SURROUNDING-OFFICE_18_FLOOR1_ROOM1,961.63,68.5,14.048,7.118E-002,10.006,7.544,0.000,0.000,0.000,0.000,17.550,No
 Zone Internal Gains Nominal, FLR1_SURROUNDING-OFFICE_18_FLOOR3_ROOM1,961.63,68.5,14.048,7.118E-002,10.006,7.544,0.000,0.000,0.000,0.000,17.550,No
 Zone Internal Gains Nominal, FLR1_SURROUNDING-OFFICE_19_FLOOR1_ROOM1,1378.54,98.1,14.048,7.118E-002,10.006,7.544,0.000,0.000,0.000,0.000,17.550,No
 Zone Internal Gains Nominal, FLR1_SURROUNDING-OFFICE_19_FLOOR3_ROOM1,1378.54,98.1,14.048,7.118E-002,10.006,7.544,0.000,0.000,0.000,0.000,17.550,No
 Zone Internal Gains Nominal, FLR1_SURROUNDING-OFFICE_1_FLOOR1_ROOM1,1125.93,80.1,14.048,7.118E-002,10.006,7.544,0.000,0.000,0.000,0.000,17.550,No
 Zone Internal Gains Nominal, FLR1_SURROUNDING-OFFICE_1_FLOOR2_ROOM1,1125.93,80.1,14.048,7.118E-002,10.006,7.544,0.000,0.000,0.000,0.000,17.550,No
 Zone Internal Gains Nominal, FLR1_SURROUNDING-OFFICE_20_FLOOR1_ROOM1,670.04,47.7,14.048,7.118E-002,10.006,7.544,0.000,0.000,0.000,0.000,17.550,No
 Zone Internal Gains Nominal, FLR1_SURROUNDING-OFFICE_20_FLOOR3_ROOM1,670.04,47.7,14.048,7.118E-002,10.006,7.544,0.000,0.000,0.000,0.000,17.550,No
 Zone Internal Gains Nominal, FLR1_SURROUNDING-OFFICE_2_FLOOR1_ROOM1,309.61,22.0,14.048,7.118E-002,10.006,7.544,0.000,0.000,0.000,0.000,17.550,No
 Zone Internal Gains Nominal, FLR1_SURROUNDING-OFFICE_2_FLOOR7_ROOM1,309.61,22.0,14.048,7.118E-002,10.006,7.544,0.000,0.000,0.000,0.000,17.550,No
 Zone Internal Gains Nominal, FLR1_SURROUNDING-OFFICE_3_FLOOR1_ROOM1,308.77,22.0,14.048,7.118E-002,10.006,7.544,0.000,0.000,0.000,0.000,17.550,No
 Zone Internal Gains Nominal, FLR1_SURROUNDING-OFFICE_3_FLOOR7_ROOM1,308.77,22.0,14.048,7.118E-002,10.006,7.544,0.000,0.000,0.000,0.000,17.550,No
 Zone Internal Gains Nominal, FLR1_SURROUNDING-OFFICE_4_FLOOR1_ROOM1,301.95,21.5,14.048,7.118E-002,10.006,7.544,0.000,0.000,0.000,0.000,17.550,No
 Zone Internal Gains Nominal, FLR1_SURROUNDING-OFFICE_4_FLOOR7_ROOM1,301.95,21.5,14.048,7.118E-002,10.006,7.544,0.000,0.000,0.000,0.000,17.550,No
 Zone Internal Gains Nominal, FLR1_SURROUNDING-OFFICE_5_FLOOR1_ROOM1,303.95,21.6,14.048,7.118E-002,10.006,7.544,0.000,0.000,0.000,0.000,17.550,No
 Zone Internal Gains Nominal, FLR1_SURROUNDING-OFFICE_5_FLOOR7_ROOM1,303.95,21.6,14.048,7.118E-002,10.006,7.544,0.000,0.000,0.000,0.000,17.550,No
 Zone Internal Gains Nominal, FLR1_SURROUNDING-OFFICE_6_FLOOR1_ROOM1,281.48,20.0,14.048,7.118E-002,10.006,7.544,0.000,0.000,0.000,0.000,17.550,No
 Zone Internal Gains Nominal, FLR1_SURROUNDING-OFFICE_6_FLOOR7_ROOM1,281.48,20.0,14.048,7.118E-002,10.006,7.544,0.000,0.000,0.000,0.000,17.550,No
 Zone Internal Gains Nominal, FLR1_SURROUNDING-OFFICE_7_FLOOR1_ROOM1,287.14,20.4,14.048,7.118E-002,10.006,7.544,0.000,0.000,0.000,0.000,17.550,No
 Zone Internal Gains Nominal, FLR1_SURROUNDING-OFFICE_7_FLOOR7_ROOM1,287.14,20.4,14.048,7.118E-002,10.006,7.544,0.000,0.000,0.000,0.000,17.550,No
 Zone Internal Gains Nominal, FLR1_SURROUNDING-OFFICE_8_FLOOR1_ROOM1,284.91,20.3,14.048,7.118E-002,10.006,7.544,0.000,0.000,0.000,0.000,17.550,No
 Zone Internal Gains Nominal, FLR1_SURROUNDING-OFFICE_8_FLOOR6_ROOM1,284.91,20.3,14.048,7.118E-002,10.006,7.544,0.000,0.000,0.000,0.000,17.550,No
 Zone Internal Gains Nominal, FLR1_SURROUNDING-OFFICE_9_FLOOR1_ROOM1,283.00,20.1,14.048,7.118E-002,10.006,7.544,0.000,0.000,0.000,0.000,17.550,No
 Zone Internal Gains Nominal, FLR1_SURROUNDING-OFFICE_9_FLOOR6_ROOM1,283.00,20.1,14.048,7.118E-002,10.006,7.544,0.000,0.000,0.000,0.000,17.550,No
 Zone Internal Gains Nominal, FLR2_SURROUNDING-OFFICE_10_FLOOR1_ROOM1,280.53,20.0,14.048,7.118E-002,10.006,7.544,0.000,0.000,0.000,0.000,17.550,No
 Zone Internal Gains Nominal, FLR2_SURROUNDING-OFFICE_11_FLOOR1_ROOM1,301.61,21.5,14.048,7.118E-002,10.006,7.544,0.000,0.000,0.000,0.000,17.550,No
 Zone Internal Gains Nominal, FLR2_SURROUNDING-OFFICE_12_FLOOR1_ROOM1,581.74,41.4,14.048,7.118E-002,10.006,7.544,0.000,0.000,0.000,0.000,17.550,No
 Zone Internal Gains Nominal, FLR2_SURROUNDING-OFFICE_13_FLOOR1_ROOM1,285.06,20.3,14.048,7.118E-002,10.006,7.544,0.000,0.000,0.000,0.000,17.550,No
 Zone Internal Gains Nominal, FLR2_SURROUNDING-OFFICE_14_FLOOR1_ROOM1,285.39,20.3,14.048,7.118E-002,10.006,7.544,0.000,0.000,0.000,0.000,17.550,No
 Zone Internal Gains Nominal, FLR2_SURROUNDING-OFFICE_15_FLOOR1_ROOM1,798.90,56.9,14.048,7.118E-002,10.006,7.544,0.000,0.000,0.000,0.000,17.550,No
 Zone Internal Gains Nominal, FLR2_SURROUNDING-OFFICE_16_FLOOR1_ROOM1,739.41,52.6,14.048,7.118E-002,10.006,7.544,0.000,0.000,0.000,0.000,17.550,No
 Zone Internal Gains Nominal, FLR2_SURROUNDING-OFFICE_17_FLOOR1_ROOM1,628.09,44.7,14.048,7.118E-002,10.006,7.544,0.000,0.000,0.000,0.000,17.550,No
 Zone Internal Gains Nominal, FLR2_SURROUNDING-OFFICE_18_FLOOR1_ROOM1,961.63,68.5,14.048,7.118E-002,10.006,7.544,0.000,0.000,0.000,0.000,17.550,No
 Zone Internal Gains Nominal, FLR2_SURROUNDING-OFFICE_19_FLOOR1_ROOM1,1378.54,98.1,14.048,7.118E-002,10.006,7.544,0.000,0.000,0.000,0.000,17.550,No
 Zone Internal Gains Nominal, FLR2_SURROUNDING-OFFICE_20_FLOOR1_ROOM1,670.04,47.7,14.048,7.118E-002,10.006,7.544,0.000,0.000,0.000,0.000,17.550,No
 Zone Internal Gains Nominal, FLR2_SURROUNDING-OFFICE_2_FLOOR1_ROOM1,309.61,22.0,14.048,7.118E-002,10.006,7.544,0.000,0.000,0.000,0.000,17.550,No
 Zone Internal Gains Nominal, FLR2_SURROUNDING-OFFICE_3_FLOOR1_ROOM1,308.77,22.0,14.048,7.118E-002,10.006,7.544,0.000,0.000,0.000,0.000,17.550,No
 Zone Internal Gains Nominal, FLR2_SURROUNDING-OFFICE_4_FLOOR1_ROOM1,301.95,21.5,14.048,7.118E-002,10.006,7.544,0.000,0.000,0.000,0.000,17.550,No
 Zone Internal Gains Nominal, FLR2_SURROUNDING-OFFICE_5_FLOOR1_ROOM1,303.95,21.6,14.048,7.118E-002,10.006,7.544,0.000,0.000,0.000,0.000,17.550,No
 Zone Internal Gains Nominal, FLR2_SURROUNDING-OFFICE_6_FLOOR1_ROOM1,281.48,20.0,14.048,7.118E-002,10.006,7.544,0.000,0.000,0.000,0.000,17.550,No
 Zone Internal Gains Nominal, FLR2_SURROUNDING-OFFICE_7_FLOOR1_ROOM1,287.14,20.4,14.048,7.118E-002,10.006,7.544,0.000,0.000,0.000,0.000,17.550,No
 Zone Internal Gains Nominal, FLR2_SURROUNDING-OFFICE_8_FLOOR1_ROOM1,284.91,20.3,14.048,7.118E-002,10.006,7.544,0.000,0.000,0.000,0.000,17.550,No
 Zone Internal Gains Nominal, FLR2_SURROUNDING-OFFICE_9_FLOOR1_ROOM1,283.00,20.1,14.048,7.118E-002,10.006,7.544,0.000,0.000,0.000,0.000,17.550,No
 Zone Internal Gains Nominal, FLR3_SURROUNDING-OFFICE_10_FLOOR1_ROOM1,280.53,20.0,14.048,7.118E-002,10.006,7.544,0.000,0.000,0.000,0.000,17.550,No
 Zone Internal Gains Nominal, FLR3_SURROUNDING-OFFICE_11_FLOOR1_ROOM1,301.61,21.5,14.048,7.118E-002,10.006,7.544,0.000,0.000,0.000,0.000,17.550,No
 Zone Internal Gains Nominal, FLR3_SURROUNDING-OFFICE_12_FLOOR1_ROOM1,581.74,41.4,14.048,7.118E-002,10.006,7.544,0.000,0.000,0.000,0.000,17.550,No
 Zone Internal Gains Nominal, FLR3_SURROUNDING-OFFICE_13_FLOOR1_ROOM1,285.06,20.3,14.048,7.118E-002,10.006,7.544,0.000,0.000,0.000,0.000,17.550,No
 Zone Internal Gains Nominal, FLR3_SURROUNDING-OFFICE_14_FLOOR1_ROOM1,285.39,20.3,14.048,7.118E-002,10.006,7.544,0.000,0.000,0.000,0.000,17.550,No
 Zone Internal Gains Nominal, FLR3_SURROUNDING-OFFICE_15_FLOOR1_ROOM1,798.90,56.9,14.048,7.118E-002,10.006,7.544,0.000,0.000,0.000,0.000,17.550,No
 Zone Internal Gains Nominal, FLR3_SURROUNDING-OFFICE_16_FLOOR1_ROOM1,739.41,52.6,14.048,7.118E-002,10.006,7.544,0.000,0.000,0.000,0.000,17.550,No
 Zone Internal Gains Nominal, FLR3_SURROUNDING-OFFICE_17_FLOOR1_ROOM1,628.09,44.7,14.048,7.118E-002,10.006,7.544,0.000,0.000,0.000,0.000,17.550,No
 Zone Internal Gains Nominal, FLR3_SURROUNDING-OFFICE_2_FLOOR1_ROOM1,309.61,22.0,14.048,7.118E-002,10.006,7.544,0.000,0.000,0.000,0.000,17.550,No
 Zone Internal Gains Nominal, FLR3_SURROUNDING-OFFICE_3_FLOOR1_ROOM1,308.77,22.0,14.048,7.118E-002,10.006,7.544,0.000,0.000,0.000,0.000,17.550,No
 Zone Internal Gains Nominal, FLR3_SURROUNDING-OFFICE_4_FLOOR1_ROOM1,301.95,21.5,14.048,7.118E-002,10.006,7.544,0.000,0.000,0.000,0.000,17.550,No
 Zone Internal Gains Nominal, FLR3_SURROUNDING-OFFICE_5_FLOOR1_ROOM1,303.95,21.6,14.048,7.118E-002,10.006,7.544,0.000,0.000,0.000,0.000,17.550,No
 Zone Internal Gains Nominal, FLR3_SURROUNDING-OFFICE_6_FLOOR1_ROOM1,281.48,20.0,14.048,7.118E-002,10.006,7.544,0.000,0.000,0.000,0.000,17.550,No
 Zone Internal Gains Nominal, FLR3_SURROUNDING-OFFICE_7_FLOOR1_ROOM1,287.14,20.4,14.048,7.118E-002,10.006,7.544,0.000,0.000,0.000,0.000,17.550,No
 Zone Internal Gains Nominal, FLR3_SURROUNDING-OFFICE_8_FLOOR1_ROOM1,284.91,20.3,14.048,7.118E-002,10.006,7.544,0.000,0.000,0.000,0.000,17.550,No
 Zone Internal Gains Nominal, FLR3_SURROUNDING-OFFICE_9_FLOOR1_ROOM1,283.00,20.1,14.048,7.118E-002,10.006,7.544,0.000,0.000,0.000,0.000,17.550,No
 Zone Internal Gains Nominal, FLR4_SURROUNDING-OFFICE_10_FLOOR1_ROOM1,280.53,20.0,14.048,7.118E-002,10.006,7.544,0.000,0.000,0.000,0.000,17.550,No
 Zone Internal Gains Nominal, FLR4_SURROUNDING-OFFICE_11_FLOOR1_ROOM1,301.61,21.5,14.048,7.118E-002,10.006,7.544,0.000,0.000,0.000,0.000,17.550,No
 Zone Internal Gains Nominal, FLR4_SURROUNDING-OFFICE_12_FLOOR1_ROOM1,581.74,41.4,14.048,7.118E-002,10.006,7.544,0.000,0.000,0.000,0.000,17.550,No
 Zone Internal Gains Nominal, FLR4_SURROUNDING-OFFICE_13_FLOOR1_ROOM1,285.06,20.3,14.048,7.118E-002,10.006,7.544,0.000,0.000,0.000,0.000,17.550,No
 Zone Internal Gains Nominal, FLR4_SURROUNDING-OFFICE_14_FLOOR1_ROOM1,285.39,20.3,14.048,7.118E-002,10.006,7.544,0.000,0.000,0.000,0.000,17.550,No
 Zone Internal Gains Nominal, FLR4_SURROUNDING-OFFICE_15_FLOOR1_ROOM1,798.90,56.9,14.048,7.118E-002,10.006,7.544,0.000,0.000,0.000,0.000,17.550,No
 Zone Internal Gains Nominal, FLR4_SURROUNDING-OFFICE_16_FLOOR1_ROOM1,739.41,52.6,14.048,7.118E-002,10.006,7.544,0.000,0.000,0.000,0.000,17.550,No
 Zone Internal Gains Nominal, FLR4_SURROUNDING-OFFICE_17_FLOOR1_ROOM1,628.09,44.7,14.048,7.118E-002,10.006,7.544,0.000,0.000,0.000,0.000,17.550,No
 Zone Internal Gains Nominal, FLR4_SURROUNDING-OFFICE_2_FLOOR1_ROOM1,309.61,22.0,14.048,7.118E-002,10.006,7.544,0.000,0.000,0.000,0.000,17.550,No
 Zone Internal Gains Nominal, FLR4_SURROUNDING-OFFICE_3_FLOOR1_ROOM1,308.77,22.0,14.048,7.118E-002,10.006,7.544,0.000,0.000,0.000,0.000,17.550,No
 Zone Internal Gains Nominal, FLR4_SURROUNDING-OFFICE_4_FLOOR1_ROOM1,301.95,21.5,14.048,7.118E-002,10.006,7.544,0.000,0.000,0.000,0.000,17.550,No
 Zone Internal Gains Nominal, FLR4_SURROUNDING-OFFICE_5_FLOOR1_ROOM1,303.95,21.6,14.048,7.118E-002,10.006,7.544,0.000,0.000,0.000,0.000,17.550,No
 Zone Internal Gains Nominal, FLR4_SURROUNDING-OFFICE_6_FLOOR1_ROOM1,281.48,20.0,14.048,7.118E-002,10.006,7.544,0.000,0.000,0.000,0.000,17.550,No
 Zone Internal Gains Nominal, FLR4_SURROUNDING-OFFICE_7_FLOOR1_ROOM1,287.14,20.4,14.048,7.118E-002,10.006,7.544,0.000,0.000,0.000,0.000,17.550,No
 Zone Internal Gains Nominal, FLR4_SURROUNDING-OFFICE_8_FLOOR1_ROOM1,284.91,20.3,14.048,7.118E-002,10.006,7.544,0.000,0.000,0.000,0.000,17.550,No
 Zone Internal Gains Nominal, FLR4_SURROUNDING-OFFICE_9_FLOOR1_ROOM1,283.00,20.1,14.048,7.118E-002,10.006,7.544,0.000,0.000,0.000,0.000,17.550,No
 Zone Internal Gains Nominal, FLR5_SURROUNDING-OFFICE_10_FLOOR1_ROOM1,280.53,20.0,14.048,7.118E-002,10.006,7.544,0.000,0.000,0.000,0.000,17.550,No
 Zone Internal Gains Nominal, FLR5_SURROUNDING-OFFICE_11_FLOOR1_ROOM1,301.61,21.5,14.048,7.118E-002,10.006,7.544,0.000,0.000,0.000,0.000,17.550,No
 Zone Internal Gains Nominal, FLR5_SURROUNDING-OFFICE_12_FLOOR1_ROOM1,581.74,41.4,14.048,7.118E-002,10.006,7.544,0.000,0.000,0.000,0.000,17.550,No
 Zone Internal Gains Nominal, FLR5_SURROUNDING-OFFICE_13_FLOOR1_ROOM1,285.06,20.3,14.048,7.118E-002,10.006,7.544,0.000,0.000,0.000,0.000,17.550,No
 Zone Internal Gains Nominal, FLR5_SURROUNDING-OFFICE_14_FLOOR1_ROOM1,285.39,20.3,14.048,7.118E-002,10.006,7.544,0.000,0.000,0.000,0.000,17.550,No
 Zone Internal Gains Nominal, FLR5_SURROUNDING-OFFICE_2_FLOOR1_ROOM1,309.61,22.0,14.048,7.118E-002,10.006,7.544,0.000,0.000,0.000,0.000,17.550,No
 Zone Internal Gains Nominal, FLR5_SURROUNDING-OFFICE_3_FLOOR1_ROOM1,308.77,22.0,14.048,7.118E-002,10.006,7.544,0.000,0.000,0.000,0.000,17.550,No
 Zone Internal Gains Nominal, FLR5_SURROUNDING-OFFICE_4_FLOOR1_ROOM1,301.95,21.5,14.048,7.118E-002,10.006,7.544,0.000,0.000,0.000,0.000,17.550,No
 Zone Internal Gains Nominal, FLR5_SURROUNDING-OFFICE_5_FLOOR1_ROOM1,303.95,21.6,14.048,7.118E-002,10.006,7.544,0.000,0.000,0.000,0.000,17.550,No
 Zone Internal Gains Nominal, FLR5_SURROUNDING-OFFICE_6_FLOOR1_ROOM1,281.48,20.0,14.048,7.118E-002,10.006,7.544,0.000,0.000,0.000,0.000,17.550,No
 Zone Internal Gains Nominal, FLR5_SURROUNDING-OFFICE_7_FLOOR1_ROOM1,287.14,20.4,14.048,7.118E-002,10.006,7.544,0.000,0.000,0.000,0.000,17.550,No
 Zone Internal Gains Nominal, FLR5_SURROUNDING-OFFICE_8_FLOOR1_ROOM1,284.91,20.3,14.048,7.118E-002,10.006,7.544,0.000,0.000,0.000,0.000,17.550,No
 Zone Internal Gains Nominal, FLR5_SURROUNDING-OFFICE_9_FLOOR1_ROOM1,283.00,20.1,14.048,7.118E-002,10.006,7.544,0.000,0.000,0.000,0.000,17.550,No
 Zone Internal Gains Nominal, FLR6_SURROUNDING-OFFICE_10_FLOOR1_ROOM1,280.53,20.0,14.048,7.118E-002,10.006,7.544,0.000,0.000,0.000,0.000,17.550,No
 Zone Internal Gains Nominal, FLR6_SURROUNDING-OFFICE_11_FLOOR1_ROOM1,301.61,21.5,14.048,7.118E-002,10.006,7.544,0.000,0.000,0.000,0.000,17.550,No
 Zone Internal Gains Nominal, FLR6_SURROUNDING-OFFICE_12_FLOOR1_ROOM1,581.74,41.4,14.048,7.118E-002,10.006,7.544,0.000,0.000,0.000,0.000,17.550,No
 Zone Internal Gains Nominal, FLR6_SURROUNDING-OFFICE_13_FLOOR1_ROOM1,285.06,20.3,14.048,7.118E-002,10.006,7.544,0.000,0.000,0.000,0.000,17.550,No
 Zone Internal Gains Nominal, FLR6_SURROUNDING-OFFICE_14_FLOOR1_ROOM1,285.39,20.3,14.048,7.118E-002,10.006,7.544,0.000,0.000,0.000,0.000,17.550,No
 Zone Internal Gains Nominal, FLR6_SURROUNDING-OFFICE_2_FLOOR1_ROOM1,309.61,22.0,14.048,7.118E-002,10.006,7.544,0.000,0.000,0.000,0.000,17.550,No
 Zone Internal Gains Nominal, FLR6_SURROUNDING-OFFICE_3_FLOOR1_ROOM1,308.77,22.0,14.048,7.118E-002,10.006,7.544,0.000,0.000,0.000,0.000,17.550,No
 Zone Internal Gains Nominal, FLR6_SURROUNDING-OFFICE_4_FLOOR1_ROOM1,301.95,21.5,14.048,7.118E-002,10.006,7.544,0.000,0.000,0.000,0.000,17.550,No
 Zone Internal Gains Nominal, FLR6_SURROUNDING-OFFICE_5_FLOOR1_ROOM1,303.95,21.6,14.048,7.118E-002,10.006,7.544,0.000,0.000,0.000,0.000,17.550,No
 Zone Internal Gains Nominal, FLR6_SURROUNDING-OFFICE_6_FLOOR1_ROOM1,281.48,20.0,14.048,7.118E-002,10.006,7.544,0.000,0.000,0.000,0.000,17.550,No
 Zone Internal Gains Nominal, FLR6_SURROUNDING-OFFICE_7_FLOOR1_ROOM1,287.14,20.4,14.048,7.118E-002,10.006,7.544,0.000,0.000,0.000,0.000,17.550,No
! <People Internal Gains Nominal>,Name,Schedule Name,Zone Name,Zone Floor Area {m2},# Zone Occupants,Number of People {},People/Floor Area {person/m2},Floor Area per person {m2/person},Fraction Radiant,Fraction Convected,Sensible Fraction Calculation,Activity level,ASHRAE 55 Warnings,Carbon Dioxide Generation Rate,Nominal Minimum Number of People,Nominal Maximum Number of People
 People Internal Gains Nominal, FLR1_SURROUNDING-OFFICE_10_FLOOR1_ROOM1 MEDIUMOFFICE BUILDING_PEOPLE,MEDIUMOFFICE BUILDING_PEOPLE_OCC SCHEDULE,FLR1_SURROUNDING-OFFICE_10_FLOOR1_ROOM1,280.53,20.0,20.0,7.118E-002,14.048,0.300,0.700,AutoCalculate,MEDIUMOFFICE BUILDING_PEOPLE_ACT SCHEDULE,No,3.8200E-008,0,20
 People Internal Gains Nominal, FLR1_SURROUNDING-OFFICE_10_FLOOR7_ROOM1 MEDIUMOFFICE BUILDING_PEOPLE,MEDIUMOFFICE BUILDING_PEOPLE_OCC SCHEDULE,FLR1_SURROUNDING-OFFICE_10_FLOOR7_ROOM1,280.53,20.0,20.0,7.118E-002,14.048,0.300,0.700,AutoCalculate,MEDIUMOFFICE BUILDING_PEOPLE_ACT SCHEDULE,No,3.8200E-008,0,20
 People Internal Gains Nominal, FLR1_SURROUNDING-OFFICE_11_FLOOR1_ROOM1 MEDIUMOFFICE BUILDING_PEOPLE,MEDIUMOFFICE BUILDING_PEOPLE_OCC SCHEDULE,FLR1_SURROUNDING-OFFICE_11_FLOOR1_ROOM1,301.61,21.5,21.5,7.118E-002,14.048,0.300,0.700,AutoCalculate,MEDIUMOFFICE BUILDING_PEOPLE_ACT SCHEDULE,No,3.8200E-008,0,21
 People Internal Gains Nominal, FLR1_SURROUNDING-OFFICE_11_FLOOR7_ROOM1 MEDIUMOFFICE BUILDING_PEOPLE,MEDIUMOFFICE BUILDING_PEOPLE_OCC SCHEDULE,FLR1_SURROUNDING-OFFICE_11_FLOOR7_ROOM1,301.61,21.5,21.5,7.118E-002,14.048,0.300,0.700,AutoCalculate,MEDIUMOFFICE BUILDING_PEOPLE_ACT SCHEDULE,No,3.8200E-008,0,21
 People Internal Gains Nominal, FLR1_SURROUNDING-OFFICE_12_FLOOR1_ROOM1 MEDIUMOFFICE BUILDING_PEOPLE,MEDIUMOFFICE BUILDING_PEOPLE_OCC SCHEDULE,FLR1_SURROUNDING-OFFICE_12_FLOOR1_ROOM1,581.74,41.4,41.4,7.118E-002,14.048,0.300,0.700,AutoCalculate,MEDIUMOFFICE BUILDING_PEOPLE_ACT SCHEDULE,No,3.8200E-008,0,41
 People Internal Gains Nominal, FLR1_SURROUNDING-OFFICE_12_FLOOR7_ROOM1 MEDIUMOFFICE BUILDING_PEOPLE,MEDIUMOFFICE BUILDING_PEOPLE_OCC SCHEDULE,FLR1_SURROUNDING-OFFICE_12_FLOOR7_ROOM1,581.74,41.4,41.4,7.118E-002,14.048,0.300,0.700,AutoCalculate,MEDIUMOFFICE BUILDING_PEOPLE_ACT SCHEDULE,No,3.8200E-008,0,41
 People Internal Gains Nominal, FLR1_SURROUNDING-OFFICE_13_FLOOR1_ROOM1 MEDIUMOFFICE BUILDING_PEOPLE,MEDIUMOFFICE BUILDING_PEOPLE_OCC SCHEDULE,FLR1_SURROUNDING-OFFICE_13_FLOOR1_ROOM1,285.06,20.3,20.3,7.118E-002,14.048,0.300,0.700,AutoCalculate,MEDIUMOFFICE BUILDING_PEOPLE_ACT SCHEDULE,No,3.8200E-008,0,20
 People Internal Gains Nominal, FLR1_SURROUNDING-OFFICE_13_FLOOR7_ROOM1 MEDIUMOFFICE BUILDING_PEOPLE,MEDIUMOFFICE BUILDING_PEOPLE_OCC SCHEDULE,FLR1_SURROUNDING-OFFICE_13_FLOOR7_ROOM1,285.06,20.3,20.3,7.118E-002,14.048,0.300,0.700,AutoCalculate,MEDIUMOFFICE BUILDING_PEOPLE_ACT SCHEDULE,No,3.8200E-008,0,20
 People Internal Gains Nominal, FLR1_SURROUNDING-OFFICE_14_FLOOR1_ROOM1 MEDIUMOFFICE BUILDING_PEOPLE,MEDIUMOFFICE BUILDING_PEOPLE_OCC SCHEDULE,FLR1_SURROUNDING-OFFICE_14_FLOOR1_ROOM1,285.39,20.3,20.3,7.118E-002,14.048,0.300,0.700,AutoCalculate,MEDIUMOFFICE BUILDING_PEOPLE_ACT SCHEDULE,No,3.8200E-008,0,20
 People Internal Gains Nominal, FLR1_SURROUNDING-OFFICE_14_FLOOR7_ROOM1 MEDIUMOFFICE BUILDING_PEOPLE,MEDIUMOFFICE BUILDING_PEOPLE_OCC SCHEDULE,FLR1_SURROUNDING-OFFICE_14_FLOOR7_ROOM1,285.39,20.3,20.3,7.118E-002,14.048,0.300,0.700,AutoCalculate,MEDIUMOFFICE BUILDING_PEOPLE_ACT SCHEDULE,No,3.8200E-008,0,20
 People Internal Gains Nominal, FLR1_SURROUNDING-OFFICE_15_FLOOR1_ROOM1 MEDIUMOFFICE BUILDING_PEOPLE,MEDIUMOFFICE BUILDING_PEOPLE_OCC SCHEDULE,FLR1_SURROUNDING-OFFICE_15_FLOOR1_ROOM1,798.90,56.9,56.9,7.118E-002,14.048,0.300,0.700,AutoCalculate,MEDIUMOFFICE BUILDING_PEOPLE_ACT SCHEDULE,No,3.8200E-008,0,57
 People Internal Gains Nominal, FLR1_SURROUNDING-OFFICE_15_FLOOR5_ROOM1 MEDIUMOFFICE BUILDING_PEOPLE,MEDIUMOFFICE BUILDING_PEOPLE_OCC SCHEDULE,FLR1_SURROUNDING-OFFICE_15_FLOOR5_ROOM1,798.90,56.9,56.9,7.118E-002,14.048,0.300,0.700,AutoCalculate,MEDIUMOFFICE BUILDING_PEOPLE_ACT SCHEDULE,No,3.8200E-008,0,57
 People Internal Gains Nominal, FLR1_SURROUNDING-OFFICE_16_FLOOR1_ROOM1 MEDIUMOFFICE BUILDING_PEOPLE,MEDIUMOFFICE BUILDING_PEOPLE_OCC SCHEDULE,FLR1_SURROUNDING-OFFICE_16_FLOOR1_ROOM1,739.41,52.6,52.6,7.118E-002,14.048,0.300,0.700,AutoCalculate,MEDIUMOFFICE BUILDING_PEOPLE_ACT SCHEDULE,No,3.8200E-008,0,53
 People Internal Gains Nominal, FLR1_SURROUNDING-OFFICE_16_FLOOR5_ROOM1 MEDIUMOFFICE BUILDING_PEOPLE,MEDIUMOFFICE BUILDING_PEOPLE_OCC SCHEDULE,FLR1_SURROUNDING-OFFICE_16_FLOOR5_ROOM1,739.41,52.6,52.6,7.118E-002,14.048,0.300,0.700,AutoCalculate,MEDIUMOFFICE BUILDING_PEOPLE_ACT SCHEDULE,No,3.8200E-008,0,53
 People Internal Gains Nominal, FLR1_SURROUNDING-OFFICE_17_FLOOR1_ROOM1 MEDIUMOFFICE BUILDING_PEOPLE,MEDIUMOFFICE BUILDING_PEOPLE_OCC SCHEDULE,FLR1_SURROUNDING-OFFICE_17_FLOOR1_ROOM1,628.09,44.7,44.7,7.118E-002,14.048,0.300,0.700,AutoCalculate,MEDIUMOFFICE BUILDING_PEOPLE_ACT SCHEDULE,No,3.8200E-008,0,45
 People Internal Gains Nominal, FLR1_SURROUNDING-OFFICE_17_FLOOR5_ROOM1 MEDIUMOFFICE BUILDING_PEOPLE,MEDIUMOFFICE BUILDING_PEOPLE_OCC SCHEDULE,FLR1_SURROUNDING-OFFICE_17_FLOOR5_ROOM1,628.09,44.7,44.7,7.118E-002,14.048,0.300,0.700,AutoCalculate,MEDIUMOFFICE BUILDING_PEOPLE_ACT SCHEDULE,No,3.8200E-008,0,45
 People Internal Gains Nominal, FLR1_SURROUNDING-OFFICE_18_FLOOR1_ROOM1 MEDIUMOFFICE BUILDING_PEOPLE,MEDIUMOFFICE BUILDING_PEOPLE_OCC SCHEDULE,FLR1_SURROUNDING-OFFICE_18_FLOOR1_ROOM1,961.63,68.5,68.5,7.118E-002,14.048,0.300,0.700,AutoCalculate,MEDIUMOFFICE BUILDING_PEOPLE_ACT SCHEDULE,No,3.8200E-008,0,68
 People Internal Gains Nominal, FLR1_SURROUNDING-OFFICE_18_FLOOR3_ROOM1 MEDIUMOFFICE BUILDING_PEOPLE,MEDIUMOFFICE BUILDING_PEOPLE_OCC SCHEDULE,FLR1_SURROUNDING-OFFICE_18_FLOOR3_ROOM1,961.63,68.5,68.5,7.118E-002,14.048,0.300,0.700,AutoCalculate,MEDIUMOFFICE BUILDING_PEOPLE_ACT SCHEDULE,No,3.8200E-008,0,68
 People Internal Gains Nominal, FLR1_SURROUNDING-OFFICE_19_FLOOR1_ROOM1 MEDIUMOFFICE BUILDING_PEOPLE,MEDIUMOFFICE BUILDING_PEOPLE_OCC SCHEDULE,FLR1_SURROUNDING-OFFICE_19_FLOOR1_ROOM1,1378.54,98.1,98.1,7.118E-002,14.048,0.300,0.700,AutoCalculate,MEDIUMOFFICE BUILDING_PEOPLE_ACT SCHEDULE,No,3.8200E-008,0,98
 People Internal Gains Nominal, FLR1_SURROUNDING-OFFICE_19_FLOOR3_ROOM1 MEDIUMOFFICE BUILDING_PEOPLE,MEDIUMOFFICE BUILDING_PEOPLE_OCC SCHEDULE,FLR1_SURROUNDING-OFFICE_19_FLOOR3_ROOM1,1378.54,98.1,98.1,7.118E-002,14.048,0.300,0.700,AutoCalculate,MEDIUMOFFICE BUILDING_PEOPLE_ACT SCHEDULE,No,3.8200E-008,0,98
 People Internal Gains Nominal, FLR1_SURROUNDING-OFFICE_1_FLOOR1_ROOM1 MEDIUMOFFICE BUILDING_PEOPLE,MEDIUMOFFICE BUILDING_PEOPLE_OCC SCHEDULE,FLR1_SURROUNDING-OFFICE_1_FLOOR1_ROOM1,1125.93,80.1,80.1,7.118E-002,14.048,0.300,0.700,AutoCalculate,MEDIUMOFFICE BUILDING_PEOPLE_ACT SCHEDULE,No,3.8200E-008,0,80
 People Internal Gains Nominal, FLR1_SURROUNDING-OFFICE_1_FLOOR2_ROOM1 MEDIUMOFFICE BUILDING_PEOPLE,MEDIUMOFFICE BUILDING_PEOPLE_OCC SCHEDULE,FLR1_SURROUNDING-OFFICE_1_FLOOR2_ROOM1,1125.93,80.1,80.1,7.118E-002,14.048,0.300,0.700,AutoCalculate,MEDIUMOFFICE BUILDING_PEOPLE_ACT SCHEDULE,No,3.8200E-008,0,80
 People Internal Gains Nominal, FLR1_SURROUNDING-OFFICE_20_FLOOR1_ROOM1 MEDIUMOFFICE BUILDING_PEOPLE,MEDIUMOFFICE BUILDING_PEOPLE_OCC SCHEDULE,FLR1_SURROUNDING-OFFICE_20_FLOOR1_ROOM1,670.04,47.7,47.7,7.118E-002,14.048,0.300,0.700,AutoCalculate,MEDIUMOFFICE BUILDING_PEOPLE_ACT SCHEDULE,No,3.8200E-008,0,48
 People Internal Gains Nominal, FLR1_SURROUNDING-OFFICE_20_FLOOR3_ROOM1 MEDIUMOFFICE BUILDING_PEOPLE,MEDIUMOFFICE BUILDING_PEOPLE_OCC SCHEDULE,FLR1_SURROUNDING-OFFICE_20_FLOOR3_ROOM1,670.04,47.7,47.7,7.118E-002,14.048,0.300,0.700,AutoCalculate,MEDIUMOFFICE BUILDING_PEOPLE_ACT SCHEDULE,No,3.8200E-008,0,48
 People Internal Gains Nominal, FLR1_SURROUNDING-OFFICE_2_FLOOR1_ROOM1 MEDIUMOFFICE BUILDING_PEOPLE,MEDIUMOFFICE BUILDING_PEOPLE_OCC SCHEDULE,FLR1_SURROUNDING-OFFICE_2_FLOOR1_ROOM1,309.61,22.0,22.0,7.118E-002,14.048,0.300,0.700,AutoCalculate,MEDIUMOFFICE BUILDING_PEOPLE_ACT SCHEDULE,No,3.8200E-008,0,22
 People Internal Gains Nominal, FLR1_SURROUNDING-OFFICE_2_FLOOR7_ROOM1 MEDIUMOFFICE BUILDING_PEOPLE,MEDIUMOFFICE BUILDING_PEOPLE_OCC SCHEDULE,FLR1_SURROUNDING-OFFICE_2_FLOOR7_ROOM1,309.61,22.0,22.0,7.118E-002,14.048,0.300,0.700,AutoCalculate,MEDIUMOFFICE BUILDING_PEOPLE_ACT SCHEDULE,No,3.8200E-008,0,22
 People Internal Gains Nominal, FLR1_SURROUNDING-OFFICE_3_FLOOR1_ROOM1 MEDIUMOFFICE BUILDING_PEOPLE,MEDIUMOFFICE BUILDING_PEOPLE_OCC SCHEDULE,FLR1_SURROUNDING-OFFICE_3_FLOOR1_ROOM1,308.77,22.0,22.0,7.118E-002,14.048,0.300,0.700,AutoCalculate,MEDIUMOFFICE BUILDING_PEOPLE_ACT SCHEDULE,No,3.8200E-008,0,22
 People Internal Gains Nominal, FLR1_SURROUNDING-OFFICE_3_FLOOR7_ROOM1 MEDIUMOFFICE BUILDING_PEOPLE,MEDIUMOFFICE BUILDING_PEOPLE_OCC SCHEDULE,FLR1_SURROUNDING-OFFICE_3_FLOOR7_ROOM1,308.77,22.0,22.0,7.118E-002,14.048,0.300,0.700,AutoCalculate,MEDIUMOFFICE BUILDING_PEOPLE_ACT SCHEDULE,No,3.8200E-008,0,22
 People Internal Gains Nominal, FLR1_SURROUNDING-OFFICE_4_FLOOR1_ROOM1 MEDIUMOFFICE BUILDING_PEOPLE,MEDIUMOFFICE BUILDING_PEOPLE_OCC SCHEDULE,FLR1_SURROUNDING-OFFICE_4_FLOOR1_ROOM1,301.95,21.5,21.5,7.118E-002,14.048,0.300,0.700,AutoCalculate,MEDIUMOFFICE BUILDING_PEOPLE_ACT SCHEDULE,No,3.8200E-008,0,21
 People Internal Gains Nominal, FLR1_SURROUNDING-OFFICE_4_FLOOR7_ROOM1 MEDIUMOFFICE BUILDING_PEOPLE,MEDIUMOFFICE BUILDING_PEOPLE_OCC SCHEDULE,FLR1_SURROUNDING-OFFICE_4_FLOOR7_ROOM1,301.95,21.5,21.5,7.118E-002,14.048,0.300,0.700,AutoCalculate,MEDIUMOFFICE BUILDING_PEOPLE_ACT SCHEDULE,No,3.8200E-008,0,21
 People Internal Gains Nominal, FLR1_SURROUNDING-OFFICE_5_FLOOR1_ROOM1 MEDIUMOFFICE BUILDING_PEOPLE,MEDIUMOFFICE BUILDING_PEOPLE_OCC SCHEDULE,FLR1_SURROUNDING-OFFICE_5_FLOOR1_ROOM1,303.95,21.6,21.6,7.118E-002,14.048,0.300,0.700,AutoCalculate,MEDIUMOFFICE BUILDING_PEOPLE_ACT SCHEDULE,No,3.8200E-008,0,22
 People Internal Gains Nominal, FLR1_SURROUNDING-OFFICE_5_FLOOR7_ROOM1 MEDIUMOFFICE BUILDING_PEOPLE,MEDIUMOFFICE BUILDING_PEOPLE_OCC SCHEDULE,FLR1_SURROUNDING-OFFICE_5_FLOOR7_ROOM1,303.95,21.6,21.6,7.118E-002,14.048,0.300,0.700,AutoCalculate,MEDIUMOFFICE BUILDING_PEOPLE_ACT SCHEDULE,No,3.8200E-008,0,22
 People Internal Gains Nominal, FLR1_SURROUNDING-OFFICE_6_FLOOR1_ROOM1 MEDIUMOFFICE BUILDING_PEOPLE,MEDIUMOFFICE BUILDING_PEOPLE_OCC SCHEDULE,FLR1_SURROUNDING-OFFICE_6_FLOOR1_ROOM1,281.48,20.0,20.0,7.118E-002,14.048,0.300,0.700,AutoCalculate,MEDIUMOFFICE BUILDING_PEOPLE_ACT SCHEDULE,No,3.8200E-008,0,20
 People Internal Gains Nominal, FLR1_SURROUNDING-OFFICE_6_FLOOR7_ROOM1 MEDIUMOFFICE BUILDING_PEOPLE,MEDIUMOFFICE BUILDING_PEOPLE_OCC SCHEDULE,FLR1_SURROUNDING-OFFICE_6_FLOOR7_ROOM1,281.48,20.0,20.0,7.118E-002,14.048,0.300,0.700,AutoCalculate,MEDIUMOFFICE BUILDING_PEOPLE_ACT SCHEDULE,No,3.8200E-008,0,20
 People Internal Gains Nominal, FLR1_SURROUNDING-OFFICE_7_FLOOR1_ROOM1 MEDIUMOFFICE BUILDING_PEOPLE,MEDIUMOFFICE BUILDING_PEOPLE_OCC SCHEDULE,FLR1_SURROUNDING-OFFICE_7_FLOOR1_ROOM1,287.14,20.4,20.4,7.118E-002,14.048,0.300,0.700,AutoCalculate,MEDIUMOFFICE BUILDING_PEOPLE_ACT SCHEDULE,No,3.8200E-008,0,20
 People Internal Gains Nominal, FLR1_SURROUNDING-OFFICE_7_FLOOR7_ROOM1 MEDIUMOFFICE BUILDING_PEOPLE,MEDIUMOFFICE BUILDING_PEOPLE_OCC SCHEDULE,FLR1_SURROUNDING-OFFICE_7_FLOOR7_ROOM1,287.14,20.4,20.4,7.118E-002,14.048,0.300,0.700,AutoCalculate,MEDIUMOFFICE BUILDING_PEOPLE_ACT SCHEDULE,No,3.8200E-008,0,20
 People Internal Gains Nominal, FLR1_SURROUNDING-OFFICE_8_FLOOR1_ROOM1 MEDIUMOFFICE BUILDING_PEOPLE,MEDIUMOFFICE BUILDING_PEOPLE_OCC SCHEDULE,FLR1_SURROUNDING-OFFICE_8_FLOOR1_ROOM1,284.91,20.3,20.3,7.118E-002,14.048,0.300,0.700,AutoCalculate,MEDIUMOFFICE BUILDING_PEOPLE_ACT SCHEDULE,No,3.8200E-008,0,20
 People Internal Gains Nominal, FLR1_SURROUNDING-OFFICE_8_FLOOR6_ROOM1 MEDIUMOFFICE BUILDING_PEOPLE,MEDIUMOFFICE BUILDING_PEOPLE_OCC SCHEDULE,FLR1_SURROUNDING-OFFICE_8_FLOOR6_ROOM1,284.91,20.3,20.3,7.118E-002,14.048,0.300,0.700,AutoCalculate,MEDIUMOFFICE BUILDING_PEOPLE_ACT SCHEDULE,No,3.8200E-008,0,20
 People Internal Gains Nominal, FLR1_SURROUNDING-OFFICE_9_FLOOR1_ROOM1 MEDIUMOFFICE BUILDING_PEOPLE,MEDIUMOFFICE BUILDING_PEOPLE_OCC SCHEDULE,FLR1_SURROUNDING-OFFICE_9_FLOOR1_ROOM1,283.00,20.1,20.1,7.118E-002,14.048,0.300,0.700,AutoCalculate,MEDIUMOFFICE BUILDING_PEOPLE_ACT SCHEDULE,No,3.8200E-008,0,20
 People Internal Gains Nominal, FLR1_SURROUNDING-OFFICE_9_FLOOR6_ROOM1 MEDIUMOFFICE BUILDING_PEOPLE,MEDIUMOFFICE BUILDING_PEOPLE_OCC SCHEDULE,FLR1_SURROUNDING-OFFICE_9_FLOOR6_ROOM1,283.00,20.1,20.1,7.118E-002,14.048,0.300,0.700,AutoCalculate,MEDIUMOFFICE BUILDING_PEOPLE_ACT SCHEDULE,No,3.8200E-008,0,20
 People Internal Gains Nominal, FLR2_SURROUNDING-OFFICE_10_FLOOR1_ROOM1 MEDIUMOFFICE BUILDING_PEOPLE,MEDIUMOFFICE BUILDING_PEOPLE_OCC SCHEDULE,FLR2_SURROUNDING-OFFICE_10_FLOOR1_ROOM1,280.53,20.0,20.0,7.118E-002,14.048,0.300,0.700,AutoCalculate,MEDIUMOFFICE BUILDING_PEOPLE_ACT SCHEDULE,No,3.8200E-008,0,20
 People Internal Gains Nominal, FLR2_SURROUNDING-OFFICE_11_FLOOR1_ROOM1 MEDIUMOFFICE BUILDING_PEOPLE,MEDIUMOFFICE BUILDING_PEOPLE_OCC SCHEDULE,FLR2_SURROUNDING-OFFICE_11_FLOOR1_ROOM1,301.61,21.5,21.5,7.118E-002,14.048,0.300,0.700,AutoCalculate,MEDIUMOFFICE BUILDING_PEOPLE_ACT SCHEDULE,No,3.8200E-008,0,21
 People Internal Gains Nominal, FLR2_SURROUNDING-OFFICE_12_FLOOR1_ROOM1 MEDIUMOFFICE BUILDING_PEOPLE,MEDIUMOFFICE BUILDING_PEOPLE_OCC SCHEDULE,FLR2_SURROUNDING-OFFICE_12_FLOOR1_ROOM1,581.74,41.4,41.4,7.118E-002,14.048,0.300,0.700,AutoCalculate,MEDIUMOFFICE BUILDING_PEOPLE_ACT SCHEDULE,No,3.8200E-008,0,41
 People Internal Gains Nominal, FLR2_SURROUNDING-OFFICE_13_FLOOR1_ROOM1 MEDIUMOFFICE BUILDING_PEOPLE,MEDIUMOFFICE BUILDING_PEOPLE_OCC SCHEDULE,FLR2_SURROUNDING-OFFICE_13_FLOOR1_ROOM1,285.06,20.3,20.3,7.118E-002,14.048,0.300,0.700,AutoCalculate,MEDIUMOFFICE BUILDING_PEOPLE_ACT SCHEDULE,No,3.8200E-008,0,20
 People Internal Gains Nominal, FLR2_SURROUNDING-OFFICE_14_FLOOR1_ROOM1 MEDIUMOFFICE BUILDING_PEOPLE,MEDIUMOFFICE BUILDING_PEOPLE_OCC SCHEDULE,FLR2_SURROUNDING-OFFICE_14_FLOOR1_ROOM1,285.39,20.3,20.3,7.118E-002,14.048,0.300,0.700,AutoCalculate,MEDIUMOFFICE BUILDING_PEOPLE_ACT SCHEDULE,No,3.8200E-008,0,20
 People Internal Gains Nominal, FLR2_SURROUNDING-OFFICE_15_FLOOR1_ROOM1 MEDIUMOFFICE BUILDING_PEOPLE,MEDIUMOFFICE BUILDING_PEOPLE_OCC SCHEDULE,FLR2_SURROUNDING-OFFICE_15_FLOOR1_ROOM1,798.90,56.9,56.9,7.118E-002,14.048,0.300,0.700,AutoCalculate,MEDIUMOFFICE BUILDING_PEOPLE_ACT SCHEDULE,No,3.8200E-008,0,57
 People Internal Gains Nominal, FLR2_SURROUNDING-OFFICE_16_FLOOR1_ROOM1 MEDIUMOFFICE BUILDING_PEOPLE,MEDIUMOFFICE BUILDING_PEOPLE_OCC SCHEDULE,FLR2_SURROUNDING-OFFICE_16_FLOOR1_ROOM1,739.41,52.6,52.6,7.118E-002,14.048,0.300,0.700,AutoCalculate,MEDIUMOFFICE BUILDING_PEOPLE_ACT SCHEDULE,No,3.8200E-008,0,53
 People Internal Gains Nominal, FLR2_SURROUNDING-OFFICE_17_FLOOR1_ROOM1 MEDIUMOFFICE BUILDING_PEOPLE,MEDIUMOFFICE BUILDING_PEOPLE_OCC SCHEDULE,FLR2_SURROUNDING-OFFICE_17_FLOOR1_ROOM1,628.09,44.7,44.7,7.118E-002,14.048,0.300,0.700,AutoCalculate,MEDIUMOFFICE BUILDING_PEOPLE_ACT SCHEDULE,No,3.8200E-008,0,45
 People Internal Gains Nominal, FLR2_SURROUNDING-OFFICE_18_FLOOR1_ROOM1 MEDIUMOFFICE BUILDING_PEOPLE,MEDIUMOFFICE BUILDING_PEOPLE_OCC SCHEDULE,FLR2_SURROUNDING-OFFICE_18_FLOOR1_ROOM1,961.63,68.5,68.5,7.118E-002,14.048,0.300,0.700,AutoCalculate,MEDIUMOFFICE BUILDING_PEOPLE_ACT SCHEDULE,No,3.8200E-008,0,68
 People Internal Gains Nominal, FLR2_SURROUNDING-OFFICE_19_FLOOR1_ROOM1 MEDIUMOFFICE BUILDING_PEOPLE,MEDIUMOFFICE BUILDING_PEOPLE_OCC SCHEDULE,FLR2_SURROUNDING-OFFICE_19_FLOOR1_ROOM1,1378.54,98.1,98.1,7.118E-002,14.048,0.300,0.700,AutoCalculate,MEDIUMOFFICE BUILDING_PEOPLE_ACT SCHEDULE,No,3.8200E-008,0,98
 People Internal Gains Nominal, FLR2_SURROUNDING-OFFICE_20_FLOOR1_ROOM1 MEDIUMOFFICE BUILDING_PEOPLE,MEDIUMOFFICE BUILDING_PEOPLE_OCC SCHEDULE,FLR2_SURROUNDING-OFFICE_20_FLOOR1_ROOM1,670.04,47.7,47.7,7.118E-002,14.048,0.300,0.700,AutoCalculate,MEDIUMOFFICE BUILDING_PEOPLE_ACT SCHEDULE,No,3.8200E-008,0,48
 People Internal Gains Nominal, FLR2_SURROUNDING-OFFICE_2_FLOOR1_ROOM1 MEDIUMOFFICE BUILDING_PEOPLE,MEDIUMOFFICE BUILDING_PEOPLE_OCC SCHEDULE,FLR2_SURROUNDING-OFFICE_2_FLOOR1_ROOM1,309.61,22.0,22.0,7.118E-002,14.048,0.300,0.700,AutoCalculate,MEDIUMOFFICE BUILDING_PEOPLE_ACT SCHEDULE,No,3.8200E-008,0,22
 People Internal Gains Nominal, FLR2_SURROUNDING-OFFICE_3_FLOOR1_ROOM1 MEDIUMOFFICE BUILDING_PEOPLE,MEDIUMOFFICE BUILDING_PEOPLE_OCC SCHEDULE,FLR2_SURROUNDING-OFFICE_3_FLOOR1_ROOM1,308.77,22.0,22.0,7.118E-002,14.048,0.300,0.700,AutoCalculate,MEDIUMOFFICE BUILDING_PEOPLE_ACT SCHEDULE,No,3.8200E-008,0,22
 People Internal Gains Nominal, FLR2_SURROUNDING-OFFICE_4_FLOOR1_ROOM1 MEDIUMOFFICE BUILDING_PEOPLE,MEDIUMOFFICE BUILDING_PEOPLE_OCC SCHEDULE,FLR2_SURROUNDING-OFFICE_4_FLOOR1_ROOM1,301.95,21.5,21.5,7.118E-002,14.048,0.300,0.700,AutoCalculate,MEDIUMOFFICE BUILDING_PEOPLE_ACT SCHEDULE,No,3.8200E-008,0,21
 People Internal Gains Nominal, FLR2_SURROUNDING-OFFICE_5_FLOOR1_ROOM1 MEDIUMOFFICE BUILDING_PEOPLE,MEDIUMOFFICE BUILDING_PEOPLE_OCC SCHEDULE,FLR2_SURROUNDING-OFFICE_5_FLOOR1_ROOM1,303.95,21.6,21.6,7.118E-002,14.048,0.300,0.700,AutoCalculate,MEDIUMOFFICE BUILDING_PEOPLE_ACT SCHEDULE,No,3.8200E-008,0,22
 People Internal Gains Nominal, FLR2_SURROUNDING-OFFICE_6_FLOOR1_ROOM1 MEDIUMOFFICE BUILDING_PEOPLE,MEDIUMOFFICE BUILDING_PEOPLE_OCC SCHEDULE,FLR2_SURROUNDING-OFFICE_6_FLOOR1_ROOM1,281.48,20.0,20.0,7.118E-002,14.048,0.300,0.700,AutoCalculate,MEDIUMOFFICE BUILDING_PEOPLE_ACT SCHEDULE,No,3.8200E-008,0,20
 People Internal Gains Nominal, FLR2_SURROUNDING-OFFICE_7_FLOOR1_ROOM1 MEDIUMOFFICE BUILDING_PEOPLE,MEDIUMOFFICE BUILDING_PEOPLE_OCC SCHEDULE,FLR2_SURROUNDING-OFFICE_7_FLOOR1_ROOM1,287.14,20.4,20.4,7.118E-002,14.048,0.300,0.700,AutoCalculate,MEDIUMOFFICE BUILDING_PEOPLE_ACT SCHEDULE,No,3.8200E-008,0,20
 People Internal Gains Nominal, FLR2_SURROUNDING-OFFICE_8_FLOOR1_ROOM1 MEDIUMOFFICE BUILDING_PEOPLE,MEDIUMOFFICE BUILDING_PEOPLE_OCC SCHEDULE,FLR2_SURROUNDING-OFFICE_8_FLOOR1_ROOM1,284.91,20.3,20.3,7.118E-002,14.048,0.300,0.700,AutoCalculate,MEDIUMOFFICE BUILDING_PEOPLE_ACT SCHEDULE,No,3.8200E-008,0,20
 People Internal Gains Nominal, FLR2_SURROUNDING-OFFICE_9_FLOOR1_ROOM1 MEDIUMOFFICE BUILDING_PEOPLE,MEDIUMOFFICE BUILDING_PEOPLE_OCC SCHEDULE,FLR2_SURROUNDING-OFFICE_9_FLOOR1_ROOM1,283.00,20.1,20.1,7.118E-002,14.048,0.300,0.700,AutoCalculate,MEDIUMOFFICE BUILDING_PEOPLE_ACT SCHEDULE,No,3.8200E-008,0,20
 People Internal Gains Nominal, FLR3_SURROUNDING-OFFICE_10_FLOOR1_ROOM1 MEDIUMOFFICE BUILDING_PEOPLE,MEDIUMOFFICE BUILDING_PEOPLE_OCC SCHEDULE,FLR3_SURROUNDING-OFFICE_10_FLOOR1_ROOM1,280.53,20.0,20.0,7.118E-002,14.048,0.300,0.700,AutoCalculate,MEDIUMOFFICE BUILDING_PEOPLE_ACT SCHEDULE,No,3.8200E-008,0,20
 People Internal Gains Nominal, FLR3_SURROUNDING-OFFICE_11_FLOOR1_ROOM1 MEDIUMOFFICE BUILDING_PEOPLE,MEDIUMOFFICE BUILDING_PEOPLE_OCC SCHEDULE,FLR3_SURROUNDING-OFFICE_11_FLOOR1_ROOM1,301.61,21.5,21.5,7.118E-002,14.048,0.300,0.700,AutoCalculate,MEDIUMOFFICE BUILDING_PEOPLE_ACT SCHEDULE,No,3.8200E-008,0,21
 People Internal Gains Nominal, FLR3_SURROUNDING-OFFICE_12_FLOOR1_ROOM1 MEDIUMOFFICE BUILDING_PEOPLE,MEDIUMOFFICE BUILDING_PEOPLE_OCC SCHEDULE,FLR3_SURROUNDING-OFFICE_12_FLOOR1_ROOM1,581.74,41.4,41.4,7.118E-002,14.048,0.300,0.700,AutoCalculate,MEDIUMOFFICE BUILDING_PEOPLE_ACT SCHEDULE,No,3.8200E-008,0,41
 People Internal Gains Nominal, FLR3_SURROUNDING-OFFICE_13_FLOOR1_ROOM1 MEDIUMOFFICE BUILDING_PEOPLE,MEDIUMOFFICE BUILDING_PEOPLE_OCC SCHEDULE,FLR3_SURROUNDING-OFFICE_13_FLOOR1_ROOM1,285.06,20.3,20.3,7.118E-002,14.048,0.300,0.700,AutoCalculate,MEDIUMOFFICE BUILDING_PEOPLE_ACT SCHEDULE,No,3.8200E-008,0,20
 People Internal Gains Nominal, FLR3_SURROUNDING-OFFICE_14_FLOOR1_ROOM1 MEDIUMOFFICE BUILDING_PEOPLE,MEDIUMOFFICE BUILDING_PEOPLE_OCC SCHEDULE,FLR3_SURROUNDING-OFFICE_14_FLOOR1_ROOM1,285.39,20.3,20.3,7.118E-002,14.048,0.300,0.700,AutoCalculate,MEDIUMOFFICE BUILDING_PEOPLE_ACT SCHEDULE,No,3.8200E-008,0,20
 People Internal Gains Nominal, FLR3_SURROUNDING-OFFICE_15_FLOOR1_ROOM1 MEDIUMOFFICE BUILDING_PEOPLE,MEDIUMOFFICE BUILDING_PEOPLE_OCC SCHEDULE,FLR3_SURROUNDING-OFFICE_15_FLOOR1_ROOM1,798.90,56.9,56.9,7.118E-002,14.048,0.300,0.700,AutoCalculate,MEDIUMOFFICE BUILDING_PEOPLE_ACT SCHEDULE,No,3.8200E-008,0,57
 People Internal Gains Nominal, FLR3_SURROUNDING-OFFICE_16_FLOOR1_ROOM1 MEDIUMOFFICE BUILDING_PEOPLE,MEDIUMOFFICE BUILDING_PEOPLE_OCC SCHEDULE,FLR3_SURROUNDING-OFFICE_16_FLOOR1_ROOM1,739.41,52.6,52.6,7.118E-002,14.048,0.300,0.700,AutoCalculate,MEDIUMOFFICE BUILDING_PEOPLE_ACT SCHEDULE,No,3.8200E-008,0,53
 People Internal Gains Nominal, FLR3_SURROUNDING-OFFICE_17_FLOOR1_ROOM1 MEDIUMOFFICE BUILDING_PEOPLE,MEDIUMOFFICE BUILDING_PEOPLE_OCC SCHEDULE,FLR3_SURROUNDING-OFFICE_17_FLOOR1_ROOM1,628.09,44.7,44.7,7.118E-002,14.048,0.300,0.700,AutoCalculate,MEDIUMOFFICE BUILDING_PEOPLE_ACT SCHEDULE,No,3.8200E-008,0,45
 People Internal Gains Nominal, FLR3_SURROUNDING-OFFICE_2_FLOOR1_ROOM1 MEDIUMOFFICE BUILDING_PEOPLE,MEDIUMOFFICE BUILDING_PEOPLE_OCC SCHEDULE,FLR3_SURROUNDING-OFFICE_2_FLOOR1_ROOM1,309.61,22.0,22.0,7.118E-002,14.048,0.300,0.700,AutoCalculate,MEDIUMOFFICE BUILDING_PEOPLE_ACT SCHEDULE,No,3.8200E-008,0,22
 People Internal Gains Nominal, FLR3_SURROUNDING-OFFICE_3_FLOOR1_ROOM1 MEDIUMOFFICE BUILDING_PEOPLE,MEDIUMOFFICE BUILDING_PEOPLE_OCC SCHEDULE,FLR3_SURROUNDING-OFFICE_3_FLOOR1_ROOM1,308.77,22.0,22.0,7.118E-002,14.048,0.300,0.700,AutoCalculate,MEDIUMOFFICE BUILDING_PEOPLE_ACT SCHEDULE,No,3.8200E-008,0,22
 People Internal Gains Nominal, FLR3_SURROUNDING-OFFICE_4_FLOOR1_ROOM1 MEDIUMOFFICE BUILDING_PEOPLE,MEDIUMOFFICE BUILDING_PEOPLE_OCC SCHEDULE,FLR3_SURROUNDING-OFFICE_4_FLOOR1_ROOM1,301.95,21.5,21.5,7.118E-002,14.048,0.300,0.700,AutoCalculate,MEDIUMOFFICE BUILDING_PEOPLE_ACT SCHEDULE,No,3.8200E-008,0,21
 People Internal Gains Nominal, FLR3_SURROUNDING-OFFICE_5_FLOOR1_ROOM1 MEDIUMOFFICE BUILDING_PEOPLE,MEDIUMOFFICE BUILDING_PEOPLE_OCC SCHEDULE,FLR3_SURROUNDING-OFFICE_5_FLOOR1_ROOM1,303.95,21.6,21.6,7.118E-002,14.048,0.300,0.700,AutoCalculate,MEDIUMOFFICE BUILDING_PEOPLE_ACT SCHEDULE,No,3.8200E-008,0,22
 People Internal Gains Nominal, FLR3_SURROUNDING-OFFICE_6_FLOOR1_ROOM1 MEDIUMOFFICE BUILDING_PEOPLE,MEDIUMOFFICE BUILDING_PEOPLE_OCC SCHEDULE,FLR3_SURROUNDING-OFFICE_6_FLOOR1_ROOM1,281.48,20.0,20.0,7.118E-002,14.048,0.300,0.700,AutoCalculate,MEDIUMOFFICE BUILDING_PEOPLE_ACT SCHEDULE,No,3.8200E-008,0,20
 People Internal Gains Nominal, FLR3_SURROUNDING-OFFICE_7_FLOOR1_ROOM1 MEDIUMOFFICE BUILDING_PEOPLE,MEDIUMOFFICE BUILDING_PEOPLE_OCC SCHEDULE,FLR3_SURROUNDING-OFFICE_7_FLOOR1_ROOM1,287.14,20.4,20.4,7.118E-002,14.048,0.300,0.700,AutoCalculate,MEDIUMOFFICE BUILDING_PEOPLE_ACT SCHEDULE,No,3.8200E-008,0,20
 People Internal Gains Nominal, FLR3_SURROUNDING-OFFICE_8_FLOOR1_ROOM1 MEDIUMOFFICE BUILDING_PEOPLE,MEDIUMOFFICE BUILDING_PEOPLE_OCC SCHEDULE,FLR3_SURROUNDING-OFFICE_8_FLOOR1_ROOM1,284.91,20.3,20.3,7.118E-002,14.048,0.300,0.700,AutoCalculate,MEDIUMOFFICE BUILDING_PEOPLE_ACT SCHEDULE,No,3.8200E-008,0,20
 People Internal Gains Nominal, FLR3_SURROUNDING-OFFICE_9_FLOOR1_ROOM1 MEDIUMOFFICE BUILDING_PEOPLE,MEDIUMOFFICE BUILDING_PEOPLE_OCC SCHEDULE,FLR3_SURROUNDING-OFFICE_9_FLOOR1_ROOM1,283.00,20.1,20.1,7.118E-002,14.048,0.300,0.700,AutoCalculate,MEDIUMOFFICE BUILDING_PEOPLE_ACT SCHEDULE,No,3.8200E-008,0,20
 People Internal Gains Nominal, FLR4_SURROUNDING-OFFICE_10_FLOOR1_ROOM1 MEDIUMOFFICE BUILDING_PEOPLE,MEDIUMOFFICE BUILDING_PEOPLE_OCC SCHEDULE,FLR4_SURROUNDING-OFFICE_10_FLOOR1_ROOM1,280.53,20.0,20.0,7.118E-002,14.048,0.300,0.700,AutoCalculate,MEDIUMOFFICE BUILDING_PEOPLE_ACT SCHEDULE,No,3.8200E-008,0,20
 People Internal Gains Nominal, FLR4_SURROUNDING-OFFICE_11_FLOOR1_ROOM1 MEDIUMOFFICE BUILDING_PEOPLE,MEDIUMOFFICE BUILDING_PEOPLE_OCC SCHEDULE,FLR4_SURROUNDING-OFFICE_11_FLOOR1_ROOM1,301.61,21.5,21.5,7.118E-002,14.048,0.300,0.700,AutoCalculate,MEDIUMOFFICE BUILDING_PEOPLE_ACT SCHEDULE,No,3.8200E-008,0,21
 People Internal Gains Nominal, FLR4_SURROUNDING-OFFICE_12_FLOOR1_ROOM1 MEDIUMOFFICE BUILDING_PEOPLE,MEDIUMOFFICE BUILDING_PEOPLE_OCC SCHEDULE,FLR4_SURROUNDING-OFFICE_12_FLOOR1_ROOM1,581.74,41.4,41.4,7.118E-002,14.048,0.300,0.700,AutoCalculate,MEDIUMOFFICE BUILDING_PEOPLE_ACT SCHEDULE,No,3.8200E-008,0,41
 People Internal Gains Nominal, FLR4_SURROUNDING-OFFICE_13_FLOOR1_ROOM1 MEDIUMOFFICE BUILDING_PEOPLE,MEDIUMOFFICE BUILDING_PEOPLE_OCC SCHEDULE,FLR4_SURROUNDING-OFFICE_13_FLOOR1_ROOM1,285.06,20.3,20.3,7.118E-002,14.048,0.300,0.700,AutoCalculate,MEDIUMOFFICE BUILDING_PEOPLE_ACT SCHEDULE,No,3.8200E-008,0,20
 People Internal Gains Nominal, FLR4_SURROUNDING-OFFICE_14_FLOOR1_ROOM1 MEDIUMOFFICE BUILDING_PEOPLE,MEDIUMOFFICE BUILDING_PEOPLE_OCC SCHEDULE,FLR4_SURROUNDING-OFFICE_14_FLOOR1_ROOM1,285.39,20.3,20.3,7.118E-002,14.048,0.300,0.700,AutoCalculate,MEDIUMOFFICE BUILDING_PEOPLE_ACT SCHEDULE,No,3.8200E-008,0,20
 People Internal Gains Nominal, FLR4_SURROUNDING-OFFICE_15_FLOOR1_ROOM1 MEDIUMOFFICE BUILDING_PEOPLE,MEDIUMOFFICE BUILDING_PEOPLE_OCC SCHEDULE,FLR4_SURROUNDING-OFFICE_15_FLOOR1_ROOM1,798.90,56.9,56.9,7.118E-002,14.048,0.300,0.700,AutoCalculate,MEDIUMOFFICE BUILDING_PEOPLE_ACT SCHEDULE,No,3.8200E-008,0,57
 People Internal Gains Nominal, FLR4_SURROUNDING-OFFICE_16_FLOOR1_ROOM1 MEDIUMOFFICE BUILDING_PEOPLE,MEDIUMOFFICE BUILDING_PEOPLE_OCC SCHEDULE,FLR4_SURROUNDING-OFFICE_16_FLOOR1_ROOM1,739.41,52.6,52.6,7.118E-002,14.048,0.300,0.700,AutoCalculate,MEDIUMOFFICE BUILDING_PEOPLE_ACT SCHEDULE,No,3.8200E-008,0,53
 People Internal Gains Nominal, FLR4_SURROUNDING-OFFICE_17_FLOOR1_ROOM1 MEDIUMOFFICE BUILDING_PEOPLE,MEDIUMOFFICE BUILDING_PEOPLE_OCC SCHEDULE,FLR4_SURROUNDING-OFFICE_17_FLOOR1_ROOM1,628.09,44.7,44.7,7.118E-002,14.048,0.300,0.700,AutoCalculate,MEDIUMOFFICE BUILDING_PEOPLE_ACT SCHEDULE,No,3.8200E-008,0,45
 People Internal Gains Nominal, FLR4_SURROUNDING-OFFICE_2_FLOOR1_ROOM1 MEDIUMOFFICE BUILDING_PEOPLE,MEDIUMOFFICE BUILDING_PEOPLE_OCC SCHEDULE,FLR4_SURROUNDING-OFFICE_2_FLOOR1_ROOM1,309.61,22.0,22.0,7.118E-002,14.048,0.300,0.700,AutoCalculate,MEDIUMOFFICE BUILDING_PEOPLE_ACT SCHEDULE,No,3.8200E-008,0,22
 People Internal Gains Nominal, FLR4_SURROUNDING-OFFICE_3_FLOOR1_ROOM1 MEDIUMOFFICE BUILDING_PEOPLE,MEDIUMOFFICE BUILDING_PEOPLE_OCC SCHEDULE,FLR4_SURROUNDING-OFFICE_3_FLOOR1_ROOM1,308.77,22.0,22.0,7.118E-002,14.048,0.300,0.700,AutoCalculate,MEDIUMOFFICE BUILDING_PEOPLE_ACT SCHEDULE,No,3.8200E-008,0,22
 People Internal Gains Nominal, FLR4_SURROUNDING-OFFICE_4_FLOOR1_ROOM1 MEDIUMOFFICE BUILDING_PEOPLE,MEDIUMOFFICE BUILDING_PEOPLE_OCC SCHEDULE,FLR4_SURROUNDING-OFFICE_4_FLOOR1_ROOM1,301.95,21.5,21.5,7.118E-002,14.048,0.300,0.700,AutoCalculate,MEDIUMOFFICE BUILDING_PEOPLE_ACT SCHEDULE,No,3.8200E-008,0,21
 People Internal Gains Nominal, FLR4_SURROUNDING-OFFICE_5_FLOOR1_ROOM1 MEDIUMOFFICE BUILDING_PEOPLE,MEDIUMOFFICE BUILDING_PEOPLE_OCC SCHEDULE,FLR4_SURROUNDING-OFFICE_5_FLOOR1_ROOM1,303.95,21.6,21.6,7.118E-002,14.048,0.300,0.700,AutoCalculate,MEDIUMOFFICE BUILDING_PEOPLE_ACT SCHEDULE,No,3.8200E-008,0,22
 People Internal Gains Nominal, FLR4_SURROUNDING-OFFICE_6_FLOOR1_ROOM1 MEDIUMOFFICE BUILDING_PEOPLE,MEDIUMOFFICE BUILDING_PEOPLE_OCC SCHEDULE,FLR4_SURROUNDING-OFFICE_6_FLOOR1_ROOM1,281.48,20.0,20.0,7.118E-002,14.048,0.300,0.700,AutoCalculate,MEDIUMOFFICE BUILDING_PEOPLE_ACT SCHEDULE,No,3.8200E-008,0,20
 People Internal Gains Nominal, FLR4_SURROUNDING-OFFICE_7_FLOOR1_ROOM1 MEDIUMOFFICE BUILDING_PEOPLE,MEDIUMOFFICE BUILDING_PEOPLE_OCC SCHEDULE,FLR4_SURROUNDING-OFFICE_7_FLOOR1_ROOM1,287.14,20.4,20.4,7.118E-002,14.048,0.300,0.700,AutoCalculate,MEDIUMOFFICE BUILDING_PEOPLE_ACT SCHEDULE,No,3.8200E-008,0,20
 People Internal Gains Nominal, FLR4_SURROUNDING-OFFICE_8_FLOOR1_ROOM1 MEDIUMOFFICE BUILDING_PEOPLE,MEDIUMOFFICE BUILDING_PEOPLE_OCC SCHEDULE,FLR4_SURROUNDING-OFFICE_8_FLOOR1_ROOM1,284.91,20.3,20.3,7.118E-002,14.048,0.300,0.700,AutoCalculate,MEDIUMOFFICE BUILDING_PEOPLE_ACT SCHEDULE,No,3.8200E-008,0,20
 People Internal Gains Nominal, FLR4_SURROUNDING-OFFICE_9_FLOOR1_ROOM1 MEDIUMOFFICE BUILDING_PEOPLE,MEDIUMOFFICE BUILDING_PEOPLE_OCC SCHEDULE,FLR4_SURROUNDING-OFFICE_9_FLOOR1_ROOM1,283.00,20.1,20.1,7.118E-002,14.048,0.300,0.700,AutoCalculate,MEDIUMOFFICE BUILDING_PEOPLE_ACT SCHEDULE,No,3.8200E-008,0,20
 People Internal Gains Nominal, FLR5_SURROUNDING-OFFICE_10_FLOOR1_ROOM1 MEDIUMOFFICE BUILDING_PEOPLE,MEDIUMOFFICE BUILDING_PEOPLE_OCC SCHEDULE,FLR5_SURROUNDING-OFFICE_10_FLOOR1_ROOM1,280.53,20.0,20.0,7.118E-002,14.048,0.300,0.700,AutoCalculate,MEDIUMOFFICE BUILDING_PEOPLE_ACT SCHEDULE,No,3.8200E-008,0,20
 People Internal Gains Nominal, FLR5_SURROUNDING-OFFICE_11_FLOOR1_ROOM1 MEDIUMOFFICE BUILDING_PEOPLE,MEDIUMOFFICE BUILDING_PEOPLE_OCC SCHEDULE,FLR5_SURROUNDING-OFFICE_11_FLOOR1_ROOM1,301.61,21.5,21.5,7.118E-002,14.048,0.300,0.700,AutoCalculate,MEDIUMOFFICE BUILDING_PEOPLE_ACT SCHEDULE,No,3.8200E-008,0,21
 People Internal Gains Nominal, FLR5_SURROUNDING-OFFICE_12_FLOOR1_ROOM1 MEDIUMOFFICE BUILDING_PEOPLE,MEDIUMOFFICE BUILDING_PEOPLE_OCC SCHEDULE,FLR5_SURROUNDING-OFFICE_12_FLOOR1_ROOM1,581.74,41.4,41.4,7.118E-002,14.048,0.300,0.700,AutoCalculate,MEDIUMOFFICE BUILDING_PEOPLE_ACT SCHEDULE,No,3.8200E-008,0,41
 People Internal Gains Nominal, FLR5_SURROUNDING-OFFICE_13_FLOOR1_ROOM1 MEDIUMOFFICE BUILDING_PEOPLE,MEDIUMOFFICE BUILDING_PEOPLE_OCC SCHEDULE,FLR5_SURROUNDING-OFFICE_13_FLOOR1_ROOM1,285.06,20.3,20.3,7.118E-002,14.048,0.300,0.700,AutoCalculate,MEDIUMOFFICE BUILDING_PEOPLE_ACT SCHEDULE,No,3.8200E-008,0,20
 People Internal Gains Nominal, FLR5_SURROUNDING-OFFICE_14_FLOOR1_ROOM1 MEDIUMOFFICE BUILDING_PEOPLE,MEDIUMOFFICE BUILDING_PEOPLE_OCC SCHEDULE,FLR5_SURROUNDING-OFFICE_14_FLOOR1_ROOM1,285.39,20.3,20.3,7.118E-002,14.048,0.300,0.700,AutoCalculate,MEDIUMOFFICE BUILDING_PEOPLE_ACT SCHEDULE,No,3.8200E-008,0,20
 People Internal Gains Nominal, FLR5_SURROUNDING-OFFICE_2_FLOOR1_ROOM1 MEDIUMOFFICE BUILDING_PEOPLE,MEDIUMOFFICE BUILDING_PEOPLE_OCC SCHEDULE,FLR5_SURROUNDING-OFFICE_2_FLOOR1_ROOM1,309.61,22.0,22.0,7.118E-002,14.048,0.300,0.700,AutoCalculate,MEDIUMOFFICE BUILDING_PEOPLE_ACT SCHEDULE,No,3.8200E-008,0,22
 People Internal Gains Nominal, FLR5_SURROUNDING-OFFICE_3_FLOOR1_ROOM1 MEDIUMOFFICE BUILDING_PEOPLE,MEDIUMOFFICE BUILDING_PEOPLE_OCC SCHEDULE,FLR5_SURROUNDING-OFFICE_3_FLOOR1_ROOM1,308.77,22.0,22.0,7.118E-002,14.048,0.300,0.700,AutoCalculate,MEDIUMOFFICE BUILDING_PEOPLE_ACT SCHEDULE,No,3.8200E-008,0,22
 People Internal Gains Nominal, FLR5_SURROUNDING-OFFICE_4_FLOOR1_ROOM1 MEDIUMOFFICE BUILDING_PEOPLE,MEDIUMOFFICE BUILDING_PEOPLE_OCC SCHEDULE,FLR5_SURROUNDING-OFFICE_4_FLOOR1_ROOM1,301.95,21.5,21.5,7.118E-002,14.048,0.300,0.700,AutoCalculate,MEDIUMOFFICE BUILDING_PEOPLE_ACT SCHEDULE,No,3.8200E-008,0,21
[...]
 ElectricEquipment Internal Gains Nominal, FLR2_SURROUNDING-OFFICE_3_FLOOR1_ROOM1 MEDIUMOFFICE BUILDING_ELECTRIC EQUIPMENT,MEDIUMOFFICE BUILDING_ELECTRIC EQUIPMENT SCHEDULE,FLR2_SURROUNDING-OFFICE_3_FLOOR1_ROOM1,308.77,22.0,2329.238,7.544,105.973,0.000,0.500,0.000,0.500,Electric Equipment,0.000,2329.238
 ElectricEquipment Internal Gains Nominal, FLR2_SURROUNDING-OFFICE_4_FLOOR1_ROOM1 MEDIUMOFFICE BUILDING_ELECTRIC EQUIPMENT,MEDIUMOFFICE BUILDING_ELECTRIC EQUIPMENT SCHEDULE,FLR2_SURROUNDING-OFFICE_4_FLOOR1_ROOM1,301.95,21.5,2277.783,7.544,105.973,0.000,0.500,0.000,0.500,Electric Equipment,0.000,2277.783
 ElectricEquipment Internal Gains Nominal, FLR2_SURROUNDING-OFFICE_5_FLOOR1_ROOM1 MEDIUMOFFICE BUILDING_ELECTRIC EQUIPMENT,MEDIUMOFFICE BUILDING_ELECTRIC EQUIPMENT SCHEDULE,FLR2_SURROUNDING-OFFICE_5_FLOOR1_ROOM1,303.95,21.6,2292.910,7.544,105.973,0.000,0.500,0.000,0.500,Electric Equipment,0.000,2292.910
 ElectricEquipment Internal Gains Nominal, FLR2_SURROUNDING-OFFICE_6_FLOOR1_ROOM1 MEDIUMOFFICE BUILDING_ELECTRIC EQUIPMENT,MEDIUMOFFICE BUILDING_ELECTRIC EQUIPMENT SCHEDULE,FLR2_SURROUNDING-OFFICE_6_FLOOR1_ROOM1,281.48,20.0,2123.384,7.544,105.973,0.000,0.500,0.000,0.500,Electric Equipment,0.000,2123.384
 ElectricEquipment Internal Gains Nominal, FLR2_SURROUNDING-OFFICE_7_FLOOR1_ROOM1 MEDIUMOFFICE BUILDING_ELECTRIC EQUIPMENT,MEDIUMOFFICE BUILDING_ELECTRIC EQUIPMENT SCHEDULE,FLR2_SURROUNDING-OFFICE_7_FLOOR1_ROOM1,287.14,20.4,2166.118,7.544,105.973,0.000,0.500,0.000,0.500,Electric Equipment,0.000,2166.118
 ElectricEquipment Internal Gains Nominal, FLR2_SURROUNDING-OFFICE_8_FLOOR1_ROOM1 MEDIUMOFFICE BUILDING_ELECTRIC EQUIPMENT,MEDIUMOFFICE BUILDING_ELECTRIC EQUIPMENT SCHEDULE,FLR2_SURROUNDING-OFFICE_8_FLOOR1_ROOM1,284.91,20.3,2149.287,7.544,105.973,0.000,0.500,0.000,0.500,Electric Equipment,0.000,2149.287
 ElectricEquipment Internal Gains Nominal, FLR2_SURROUNDING-OFFICE_9_FLOOR1_ROOM1 MEDIUMOFFICE BUILDING_ELECTRIC EQUIPMENT,MEDIUMOFFICE BUILDING_ELECTRIC EQUIPMENT SCHEDULE,FLR2_SURROUNDING-OFFICE_9_FLOOR1_ROOM1,283.00,20.1,2134.884,7.544,105.973,0.000,0.500,0.000,0.500,Electric Equipment,0.000,2134.884
 ElectricEquipment Internal Gains Nominal, FLR3_SURROUNDING-OFFICE_10_FLOOR1_ROOM1 MEDIUMOFFICE BUILDING_ELECTRIC EQUIPMENT,MEDIUMOFFICE BUILDING_ELECTRIC EQUIPMENT SCHEDULE,FLR3_SURROUNDING-OFFICE_10_FLOOR1_ROOM1,280.53,20.0,2116.231,7.544,105.973,0.000,0.500,0.000,0.500,Electric Equipment,0.000,2116.231
 ElectricEquipment Internal Gains Nominal, FLR3_SURROUNDING-OFFICE_11_FLOOR1_ROOM1 MEDIUMOFFICE BUILDING_ELECTRIC EQUIPMENT,MEDIUMOFFICE BUILDING_ELECTRIC EQUIPMENT SCHEDULE,FLR3_SURROUNDING-OFFICE_11_FLOOR1_ROOM1,301.61,21.5,2275.241,7.544,105.973,0.000,0.500,0.000,0.500,Electric Equipment,0.000,2275.241
 ElectricEquipment Internal Gains Nominal, FLR3_SURROUNDING-OFFICE_12_FLOOR1_ROOM1 MEDIUMOFFICE BUILDING_ELECTRIC EQUIPMENT,MEDIUMOFFICE BUILDING_ELECTRIC EQUIPMENT SCHEDULE,FLR3_SURROUNDING-OFFICE_12_FLOOR1_ROOM1,581.74,41.4,4388.418,7.544,105.973,0.000,0.500,0.000,0.500,Electric Equipment,0.000,4388.418
 ElectricEquipment Internal Gains Nominal, FLR3_SURROUNDING-OFFICE_13_FLOOR1_ROOM1 MEDIUMOFFICE BUILDING_ELECTRIC EQUIPMENT,MEDIUMOFFICE BUILDING_ELECTRIC EQUIPMENT SCHEDULE,FLR3_SURROUNDING-OFFICE_13_FLOOR1_ROOM1,285.06,20.3,2150.398,7.544,105.973,0.000,0.500,0.000,0.500,Electric Equipment,0.000,2150.398
 ElectricEquipment Internal Gains Nominal, FLR3_SURROUNDING-OFFICE_14_FLOOR1_ROOM1 MEDIUMOFFICE BUILDING_ELECTRIC EQUIPMENT,MEDIUMOFFICE BUILDING_ELECTRIC EQUIPMENT SCHEDULE,FLR3_SURROUNDING-OFFICE_14_FLOOR1_ROOM1,285.39,20.3,2152.865,7.544,105.973,0.000,0.500,0.000,0.500,Electric Equipment,0.000,2152.865
 ElectricEquipment Internal Gains Nominal, FLR3_SURROUNDING-OFFICE_15_FLOOR1_ROOM1 MEDIUMOFFICE BUILDING_ELECTRIC EQUIPMENT,MEDIUMOFFICE BUILDING_ELECTRIC EQUIPMENT SCHEDULE,FLR3_SURROUNDING-OFFICE_15_FLOOR1_ROOM1,798.90,56.9,6026.623,7.544,105.973,0.000,0.500,0.000,0.500,Electric Equipment,0.000,6026.623
 ElectricEquipment Internal Gains Nominal, FLR3_SURROUNDING-OFFICE_16_FLOOR1_ROOM1 MEDIUMOFFICE BUILDING_ELECTRIC EQUIPMENT,MEDIUMOFFICE BUILDING_ELECTRIC EQUIPMENT SCHEDULE,FLR3_SURROUNDING-OFFICE_16_FLOOR1_ROOM1,739.41,52.6,5577.830,7.544,105.973,0.000,0.500,0.000,0.500,Electric Equipment,0.000,5577.830
 ElectricEquipment Internal Gains Nominal, FLR3_SURROUNDING-OFFICE_17_FLOOR1_ROOM1 MEDIUMOFFICE BUILDING_ELECTRIC EQUIPMENT,MEDIUMOFFICE BUILDING_ELECTRIC EQUIPMENT SCHEDULE,FLR3_SURROUNDING-OFFICE_17_FLOOR1_ROOM1,628.09,44.7,4738.107,7.544,105.973,0.000,0.500,0.000,0.500,Electric Equipment,0.000,4738.107
 ElectricEquipment Internal Gains Nominal, FLR3_SURROUNDING-OFFICE_2_FLOOR1_ROOM1 MEDIUMOFFICE BUILDING_ELECTRIC EQUIPMENT,MEDIUMOFFICE BUILDING_ELECTRIC EQUIPMENT SCHEDULE,FLR3_SURROUNDING-OFFICE_2_FLOOR1_ROOM1,309.61,22.0,2335.579,7.544,105.973,0.000,0.500,0.000,0.500,Electric Equipment,0.000,2335.579
 ElectricEquipment Internal Gains Nominal, FLR3_SURROUNDING-OFFICE_3_FLOOR1_ROOM1 MEDIUMOFFICE BUILDING_ELECTRIC EQUIPMENT,MEDIUMOFFICE BUILDING_ELECTRIC EQUIPMENT SCHEDULE,FLR3_SURROUNDING-OFFICE_3_FLOOR1_ROOM1,308.77,22.0,2329.238,7.544,105.973,0.000,0.500,0.000,0.500,Electric Equipment,0.000,2329.238
 ElectricEquipment Internal Gains Nominal, FLR3_SURROUNDING-OFFICE_4_FLOOR1_ROOM1 MEDIUMOFFICE BUILDING_ELECTRIC EQUIPMENT,MEDIUMOFFICE BUILDING_ELECTRIC EQUIPMENT SCHEDULE,FLR3_SURROUNDING-OFFICE_4_FLOOR1_ROOM1,301.95,21.5,2277.783,7.544,105.973,0.000,0.500,0.000,0.500,Electric Equipment,0.000,2277.783
 ElectricEquipment Internal Gains Nominal, FLR3_SURROUNDING-OFFICE_5_FLOOR1_ROOM1 MEDIUMOFFICE BUILDING_ELECTRIC EQUIPMENT,MEDIUMOFFICE BUILDING_ELECTRIC EQUIPMENT SCHEDULE,FLR3_SURROUNDING-OFFICE_5_FLOOR1_ROOM1,303.95,21.6,2292.910,7.544,105.973,0.000,0.500,0.000,0.500,Electric Equipment,0.000,2292.910
 ElectricEquipment Internal Gains Nominal, FLR3_SURROUNDING-OFFICE_6_FLOOR1_ROOM1 MEDIUMOFFICE BUILDING_ELECTRIC EQUIPMENT,MEDIUMOFFICE BUILDING_ELECTRIC EQUIPMENT SCHEDULE,FLR3_SURROUNDING-OFFICE_6_FLOOR1_ROOM1,281.48,20.0,2123.384,7.544,105.973,0.000,0.500,0.000,0.500,Electric Equipment,0.000,2123.384
 ElectricEquipment Internal Gains Nominal, FLR3_SURROUNDING-OFFICE_7_FLOOR1_ROOM1 MEDIUMOFFICE BUILDING_ELECTRIC EQUIPMENT,MEDIUMOFFICE BUILDING_ELECTRIC EQUIPMENT SCHEDULE,FLR3_SURROUNDING-OFFICE_7_FLOOR1_ROOM1,287.14,20.4,2166.118,7.544,105.973,0.000,0.500,0.000,0.500,Electric Equipment,0.000,2166.118
 ElectricEquipment Internal Gains Nominal, FLR3_SURROUNDING-OFFICE_8_FLOOR1_ROOM1 MEDIUMOFFICE BUILDING_ELECTRIC EQUIPMENT,MEDIUMOFFICE BUILDING_ELECTRIC EQUIPMENT SCHEDULE,FLR3_SURROUNDING-OFFICE_8_FLOOR1_ROOM1,284.91,20.3,2149.287,7.544,105.973,0.000,0.500,0.000,0.500,Electric Equipment,0.000,2149.287
 ElectricEquipment Internal Gains Nominal, FLR3_SURROUNDING-OFFICE_9_FLOOR1_ROOM1 MEDIUMOFFICE BUILDING_ELECTRIC EQUIPMENT,MEDIUMOFFICE BUILDING_ELECTRIC EQUIPMENT SCHEDULE,FLR3_SURROUNDING-OFFICE_9_FLOOR1_ROOM1,283.00,20.1,2134.884,7.544,105.973,0.000,0.500,0.000,0.500,Electric Equipment,0.000,2134.884
 ElectricEquipment Internal Gains Nominal, FLR4_SURROUNDING-OFFICE_10_FLOOR1_ROOM1 MEDIUMOFFICE BUILDING_ELECTRIC EQUIPMENT,MEDIUMOFFICE BUILDING_ELECTRIC EQUIPMENT SCHEDULE,FLR4_SURROUNDING-OFFICE_10_FLOOR1_ROOM1,280.53,20.0,2116.231,7.544,105.973,0.000,0.500,0.000,0.500,Electric Equipment,0.000,2116.231
 ElectricEquipment Internal Gains Nominal, FLR4_SURROUNDING-OFFICE_11_FLOOR1_ROOM1 MEDIUMOFFICE BUILDING_ELECTRIC EQUIPMENT,MEDIUMOFFICE BUILDING_ELECTRIC EQUIPMENT SCHEDULE,FLR4_SURROUNDING-OFFICE_11_FLOOR1_ROOM1,301.61,21.5,2275.241,7.544,105.973,0.000,0.500,0.000,0.500,Electric Equipment,0.000,2275.241
 ElectricEquipment Internal Gains Nominal, FLR4_SURROUNDING-OFFICE_12_FLOOR1_ROOM1 MEDIUMOFFICE BUILDING_ELECTRIC EQUIPMENT,MEDIUMOFFICE BUILDING_ELECTRIC EQUIPMENT SCHEDULE,FLR4_SURROUNDING-OFFICE_12_FLOOR1_ROOM1,581.74,41.4,4388.418,7.544,105.973,0.000,0.500,0.000,0.500,Electric Equipment,0.000,4388.418
 ElectricEquipment Internal Gains Nominal, FLR4_SURROUNDING-OFFICE_13_FLOOR1_ROOM1 MEDIUMOFFICE BUILDING_ELECTRIC EQUIPMENT,MEDIUMOFFICE BUILDING_ELECTRIC EQUIPMENT SCHEDULE,FLR4_SURROUNDING-OFFICE_13_FLOOR1_ROOM1,285.06,20.3,2150.398,7.544,105.973,0.000,0.500,0.000,0.500,Electric Equipment,0.000,2150.398
 ElectricEquipment Internal Gains Nominal, FLR4_SURROUNDING-OFFICE_14_FLOOR1_ROOM1 MEDIUMOFFICE BUILDING_ELECTRIC EQUIPMENT,MEDIUMOFFICE BUILDING_ELECTRIC EQUIPMENT SCHEDULE,FLR4_SURROUNDING-OFFICE_14_FLOOR1_ROOM1,285.39,20.3,2152.865,7.544,105.973,0.000,0.500,0.000,0.500,Electric Equipment,0.000,2152.865
 ElectricEquipment Internal Gains Nominal, FLR4_SURROUNDING-OFFICE_15_FLOOR1_ROOM1 MEDIUMOFFICE BUILDING_ELECTRIC EQUIPMENT,MEDIUMOFFICE BUILDING_ELECTRIC EQUIPMENT SCHEDULE,FLR4_SURROUNDING-OFFICE_15_FLOOR1_ROOM1,798.90,56.9,6026.623,7.544,105.973,0.000,0.500,0.000,0.500,Electric Equipment,0.000,6026.623
 ElectricEquipment Internal Gains Nominal, FLR4_SURROUNDING-OFFICE_16_FLOOR1_ROOM1 MEDIUMOFFICE BUILDING_ELECTRIC EQUIPMENT,MEDIUMOFFICE BUILDING_ELECTRIC EQUIPMENT SCHEDULE,FLR4_SURROUNDING-OFFICE_16_FLOOR1_ROOM1,739.41,52.6,5577.830,7.544,105.973,0.000,0.500,0.000,0.500,Electric Equipment,0.000,5577.830
 ElectricEquipment Internal Gains Nominal, FLR4_SURROUNDING-OFFICE_17_FLOOR1_ROOM1 MEDIUMOFFICE BUILDING_ELECTRIC EQUIPMENT,MEDIUMOFFICE BUILDING_ELECTRIC EQUIPMENT SCHEDULE,FLR4_SURROUNDING-OFFICE_17_FLOOR1_ROOM1,628.09,44.7,4738.107,7.544,105.973,0.000,0.500,0.000,0.500,Electric Equipment,0.000,4738.107
 ElectricEquipment Internal Gains Nominal, FLR4_SURROUNDING-OFFICE_2_FLOOR1_ROOM1 MEDIUMOFFICE BUILDING_ELECTRIC EQUIPMENT,MEDIUMOFFICE BUILDING_ELECTRIC EQUIPMENT SCHEDULE,FLR4_SURROUNDING-OFFICE_2_FLOOR1_ROOM1,309.61,22.0,2335.579,7.544,105.973,0.000,0.500,0.000,0.500,Electric Equipment,0.000,2335.579
 ElectricEquipment Internal Gains Nominal, FLR4_SURROUNDING-OFFICE_3_FLOOR1_ROOM1 MEDIUMOFFICE BUILDING_ELECTRIC EQUIPMENT,MEDIUMOFFICE BUILDING_ELECTRIC EQUIPMENT SCHEDULE,FLR4_SURROUNDING-OFFICE_3_FLOOR1_ROOM1,308.77,22.0,2329.238,7.544,105.973,0.000,0.500,0.000,0.500,Electric Equipment,0.000,2329.238
 ElectricEquipment Internal Gains Nominal, FLR4_SURROUNDING-OFFICE_4_FLOOR1_ROOM1 MEDIUMOFFICE BUILDING_ELECTRIC EQUIPMENT,MEDIUMOFFICE BUILDING_ELECTRIC EQUIPMENT SCHEDULE,FLR4_SURROUNDING-OFFICE_4_FLOOR1_ROOM1,301.95,21.5,2277.783,7.544,105.973,0.000,0.500,0.000,0.500,Electric Equipment,0.000,2277.783
 ElectricEquipment Internal Gains Nominal, FLR4_SURROUNDING-OFFICE_5_FLOOR1_ROOM1 MEDIUMOFFICE BUILDING_ELECTRIC EQUIPMENT,MEDIUMOFFICE BUILDING_ELECTRIC EQUIPMENT SCHEDULE,FLR4_SURROUNDING-OFFICE_5_FLOOR1_ROOM1,303.95,21.6,2292.910,7.544,105.973,0.000,0.500,0.000,0.500,Electric Equipment,0.000,2292.910
 ElectricEquipment Internal Gains Nominal, FLR4_SURROUNDING-OFFICE_6_FLOOR1_ROOM1 MEDIUMOFFICE BUILDING_ELECTRIC EQUIPMENT,MEDIUMOFFICE BUILDING_ELECTRIC EQUIPMENT SCHEDULE,FLR4_SURROUNDING-OFFICE_6_FLOOR1_ROOM1,281.48,20.0,2123.384,7.544,105.973,0.000,0.500,0.000,0.500,Electric Equipment,0.000,2123.384
 ElectricEquipment Internal Gains Nominal, FLR4_SURROUNDING-OFFICE_7_FLOOR1_ROOM1 MEDIUMOFFICE BUILDING_ELECTRIC EQUIPMENT,MEDIUMOFFICE BUILDING_ELECTRIC EQUIPMENT SCHEDULE,FLR4_SURROUNDING-OFFICE_7_FLOOR1_ROOM1,287.14,20.4,2166.118,7.544,105.973,0.000,0.500,0.000,0.500,Electric Equipment,0.000,2166.118
 ElectricEquipment Internal Gains Nominal, FLR4_SURROUNDING-OFFICE_8_FLOOR1_ROOM1 MEDIUMOFFICE BUILDING_ELECTRIC EQUIPMENT,MEDIUMOFFICE BUILDING_ELECTRIC EQUIPMENT SCHEDULE,FLR4_SURROUNDING-OFFICE_8_FLOOR1_ROOM1,284.91,20.3,2149.287,7.544,105.973,0.000,0.500,0.000,0.500,Electric Equipment,0.000,2149.287
 ElectricEquipment Internal Gains Nominal, FLR4_SURROUNDING-OFFICE_9_FLOOR1_ROOM1 MEDIUMOFFICE BUILDING_ELECTRIC EQUIPMENT,MEDIUMOFFICE BUILDING_ELECTRIC EQUIPMENT SCHEDULE,FLR4_SURROUNDING-OFFICE_9_FLOOR1_ROOM1,283.00,20.1,2134.884,7.544,105.973,0.000,0.500,0.000,0.500,Electric Equipment,0.000,2134.884
 ElectricEquipment Internal Gains Nominal, FLR5_SURROUNDING-OFFICE_10_FLOOR1_ROOM1 MEDIUMOFFICE BUILDING_ELECTRIC EQUIPMENT,MEDIUMOFFICE BUILDING_ELECTRIC EQUIPMENT SCHEDULE,FLR5_SURROUNDING-OFFICE_10_FLOOR1_ROOM1,280.53,20.0,2116.231,7.544,105.973,0.000,0.500,0.000,0.500,Electric Equipment,0.000,2116.231
 ElectricEquipment Internal Gains Nominal, FLR5_SURROUNDING-OFFICE_11_FLOOR1_ROOM1 MEDIUMOFFICE BUILDING_ELECTRIC EQUIPMENT,MEDIUMOFFICE BUILDING_ELECTRIC EQUIPMENT SCHEDULE,FLR5_SURROUNDING-OFFICE_11_FLOOR1_ROOM1,301.61,21.5,2275.241,7.544,105.973,0.000,0.500,0.000,0.500,Electric Equipment,0.000,2275.241
 ElectricEquipment Internal Gains Nominal, FLR5_SURROUNDING-OFFICE_12_FLOOR1_ROOM1 MEDIUMOFFICE BUILDING_ELECTRIC EQUIPMENT,MEDIUMOFFICE BUILDING_ELECTRIC EQUIPMENT SCHEDULE,FLR5_SURROUNDING-OFFICE_12_FLOOR1_ROOM1,581.74,41.4,4388.418,7.544,105.973,0.000,0.500,0.000,0.500,Electric Equipment,0.000,4388.418
 ElectricEquipment Internal Gains Nominal, FLR5_SURROUNDING-OFFICE_13_FLOOR1_ROOM1 MEDIUMOFFICE BUILDING_ELECTRIC EQUIPMENT,MEDIUMOFFICE BUILDING_ELECTRIC EQUIPMENT SCHEDULE,FLR5_SURROUNDING-OFFICE_13_FLOOR1_ROOM1,285.06,20.3,2150.398,7.544,105.973,0.000,0.500,0.000,0.500,Electric Equipment,0.000,2150.398
 ElectricEquipment Internal Gains Nominal, FLR5_SURROUNDING-OFFICE_14_FLOOR1_ROOM1 MEDIUMOFFICE BUILDING_ELECTRIC EQUIPMENT,MEDIUMOFFICE BUILDING_ELECTRIC EQUIPMENT SCHEDULE,FLR5_SURROUNDING-OFFICE_14_FLOOR1_ROOM1,285.39,20.3,2152.865,7.544,105.973,0.000,0.500,0.000,0.500,Electric Equipment,0.000,2152.865
 ElectricEquipment Internal Gains Nominal, FLR5_SURROUNDING-OFFICE_2_FLOOR1_ROOM1 MEDIUMOFFICE BUILDING_ELECTRIC EQUIPMENT,MEDIUMOFFICE BUILDING_ELECTRIC EQUIPMENT SCHEDULE,FLR5_SURROUNDING-OFFICE_2_FLOOR1_ROOM1,309.61,22.0,2335.579,7.544,105.973,0.000,0.500,0.000,0.500,Electric Equipment,0.000,2335.579
 ElectricEquipment Internal Gains Nominal, FLR5_SURROUNDING-OFFICE_3_FLOOR1_ROOM1 MEDIUMOFFICE BUILDING_ELECTRIC EQUIPMENT,MEDIUMOFFICE BUILDING_ELECTRIC EQUIPMENT SCHEDULE,FLR5_SURROUNDING-OFFICE_3_FLOOR1_ROOM1,308.77,22.0,2329.238,7.544,105.973,0.000,0.500,0.000,0.500,Electric Equipment,0.000,2329.238
 ElectricEquipment Internal Gains Nominal, FLR5_SURROUNDING-OFFICE_4_FLOOR1_ROOM1 MEDIUMOFFICE BUILDING_ELECTRIC EQUIPMENT,MEDIUMOFFICE BUILDING_ELECTRIC EQUIPMENT SCHEDULE,FLR5_SURROUNDING-OFFICE_4_FLOOR1_ROOM1,301.95,21.5,2277.783,7.544,105.973,0.000,0.500,0.000,0.500,Electric Equipment,0.000,2277.783
 ElectricEquipment Internal Gains Nominal, FLR5_SURROUNDING-OFFICE_5_FLOOR1_ROOM1 MEDIUMOFFICE BUILDING_ELECTRIC EQUIPMENT,MEDIUMOFFICE BUILDING_ELECTRIC EQUIPMENT SCHEDULE,FLR5_SURROUNDING-OFFICE_5_FLOOR1_ROOM1,303.95,21.6,2292.910,7.544,105.973,0.000,0.500,0.000,0.500,Electric Equipment,0.000,2292.910
 ElectricEquipment Internal Gains Nominal, FLR5_SURROUNDING-OFFICE_6_FLOOR1_ROOM1 MEDIUMOFFICE BUILDING_ELECTRIC EQUIPMENT,MEDIUMOFFICE BUILDING_ELECTRIC EQUIPMENT SCHEDULE,FLR5_SURROUNDING-OFFICE_6_FLOOR1_ROOM1,281.48,20.0,2123.384,7.544,105.973,0.000,0.500,0.000,0.500,Electric Equipment,0.000,2123.384
 ElectricEquipment Internal Gains Nominal, FLR5_SURROUNDING-OFFICE_7_FLOOR1_ROOM1 MEDIUMOFFICE BUILDING_ELECTRIC EQUIPMENT,MEDIUMOFFICE BUILDING_ELECTRIC EQUIPMENT SCHEDULE,FLR5_SURROUNDING-OFFICE_7_FLOOR1_ROOM1,287.14,20.4,2166.118,7.544,105.973,0.000,0.500,0.000,0.500,Electric Equipment,0.000,2166.118
 ElectricEquipment Internal Gains Nominal, FLR5_SURROUNDING-OFFICE_8_FLOOR1_ROOM1 MEDIUMOFFICE BUILDING_ELECTRIC EQUIPMENT,MEDIUMOFFICE BUILDING_ELECTRIC EQUIPMENT SCHEDULE,FLR5_SURROUNDING-OFFICE_8_FLOOR1_ROOM1,284.91,20.3,2149.287,7.544,105.973,0.000,0.500,0.000,0.500,Electric Equipment,0.000,2149.287
 ElectricEquipment Internal Gains Nominal, FLR5_SURROUNDING-OFFICE_9_FLOOR1_ROOM1 MEDIUMOFFICE BUILDING_ELECTRIC EQUIPMENT,MEDIUMOFFICE BUILDING_ELECTRIC EQUIPMENT SCHEDULE,FLR5_SURROUNDING-OFFICE_9_FLOOR1_ROOM1,283.00,20.1,2134.884,7.544,105.973,0.000,0.500,0.000,0.500,Electric Equipment,0.000,2134.884
 ElectricEquipment Internal Gains Nominal, FLR6_SURROUNDING-OFFICE_10_FLOOR1_ROOM1 MEDIUMOFFICE BUILDING_ELECTRIC EQUIPMENT,MEDIUMOFFICE BUILDING_ELECTRIC EQUIPMENT SCHEDULE,FLR6_SURROUNDING-OFFICE_10_FLOOR1_ROOM1,280.53,20.0,2116.231,7.544,105.973,0.000,0.500,0.000,0.500,Electric Equipment,0.000,2116.231
 ElectricEquipment Internal Gains Nominal, FLR6_SURROUNDING-OFFICE_11_FLOOR1_ROOM1 MEDIUMOFFICE BUILDING_ELECTRIC EQUIPMENT,MEDIUMOFFICE BUILDING_ELECTRIC EQUIPMENT SCHEDULE,FLR6_SURROUNDING-OFFICE_11_FLOOR1_ROOM1,301.61,21.5,2275.241,7.544,105.973,0.000,0.500,0.000,0.500,Electric Equipment,0.000,2275.241
 ElectricEquipment Internal Gains Nominal, FLR6_SURROUNDING-OFFICE_12_FLOOR1_ROOM1 MEDIUMOFFICE BUILDING_ELECTRIC EQUIPMENT,MEDIUMOFFICE BUILDING_ELECTRIC EQUIPMENT SCHEDULE,FLR6_SURROUNDING-OFFICE_12_FLOOR1_ROOM1,581.74,41.4,4388.418,7.544,105.973,0.000,0.500,0.000,0.500,Electric Equipment,0.000,4388.418
 ElectricEquipment Internal Gains Nominal, FLR6_SURROUNDING-OFFICE_13_FLOOR1_ROOM1 MEDIUMOFFICE BUILDING_ELECTRIC EQUIPMENT,MEDIUMOFFICE BUILDING_ELECTRIC EQUIPMENT SCHEDULE,FLR6_SURROUNDING-OFFICE_13_FLOOR1_ROOM1,285.06,20.3,2150.398,7.544,105.973,0.000,0.500,0.000,0.500,Electric Equipment,0.000,2150.398
 ElectricEquipment Internal Gains Nominal, FLR6_SURROUNDING-OFFICE_14_FLOOR1_ROOM1 MEDIUMOFFICE BUILDING_ELECTRIC EQUIPMENT,MEDIUMOFFICE BUILDING_ELECTRIC EQUIPMENT SCHEDULE,FLR6_SURROUNDING-OFFICE_14_FLOOR1_ROOM1,285.39,20.3,2152.865,7.544,105.973,0.000,0.500,0.000,0.500,Electric Equipment,0.000,2152.865
 ElectricEquipment Internal Gains Nominal, FLR6_SURROUNDING-OFFICE_2_FLOOR1_ROOM1 MEDIUMOFFICE BUILDING_ELECTRIC EQUIPMENT,MEDIUMOFFICE BUILDING_ELECTRIC EQUIPMENT SCHEDULE,FLR6_SURROUNDING-OFFICE_2_FLOOR1_ROOM1,309.61,22.0,2335.579,7.544,105.973,0.000,0.500,0.000,0.500,Electric Equipment,0.000,2335.579
 ElectricEquipment Internal Gains Nominal, FLR6_SURROUNDING-OFFICE_3_FLOOR1_ROOM1 MEDIUMOFFICE BUILDING_ELECTRIC EQUIPMENT,MEDIUMOFFICE BUILDING_ELECTRIC EQUIPMENT SCHEDULE,FLR6_SURROUNDING-OFFICE_3_FLOOR1_ROOM1,308.77,22.0,2329.238,7.544,105.973,0.000,0.500,0.000,0.500,Electric Equipment,0.000,2329.238
 ElectricEquipment Internal Gains Nominal, FLR6_SURROUNDING-OFFICE_4_FLOOR1_ROOM1 MEDIUMOFFICE BUILDING_ELECTRIC EQUIPMENT,MEDIUMOFFICE BUILDING_ELECTRIC EQUIPMENT SCHEDULE,FLR6_SURROUNDING-OFFICE_4_FLOOR1_ROOM1,301.95,21.5,2277.783,7.544,105.973,0.000,0.500,0.000,0.500,Electric Equipment,0.000,2277.783
 ElectricEquipment Internal Gains Nominal, FLR6_SURROUNDING-OFFICE_5_FLOOR1_ROOM1 MEDIUMOFFICE BUILDING_ELECTRIC EQUIPMENT,MEDIUMOFFICE BUILDING_ELECTRIC EQUIPMENT SCHEDULE,FLR6_SURROUNDING-OFFICE_5_FLOOR1_ROOM1,303.95,21.6,2292.910,7.544,105.973,0.000,0.500,0.000,0.500,Electric Equipment,0.000,2292.910
 ElectricEquipment Internal Gains Nominal, FLR6_SURROUNDING-OFFICE_6_FLOOR1_ROOM1 MEDIUMOFFICE BUILDING_ELECTRIC EQUIPMENT,MEDIUMOFFICE BUILDING_ELECTRIC EQUIPMENT SCHEDULE,FLR6_SURROUNDING-OFFICE_6_FLOOR1_ROOM1,281.48,20.0,2123.384,7.544,105.973,0.000,0.500,0.000,0.500,Electric Equipment,0.000,2123.384
 ElectricEquipment Internal Gains Nominal, FLR6_SURROUNDING-OFFICE_7_FLOOR1_ROOM1 MEDIUMOFFICE BUILDING_ELECTRIC EQUIPMENT,MEDIUMOFFICE BUILDING_ELECTRIC EQUIPMENT SCHEDULE,FLR6_SURROUNDING-OFFICE_7_FLOOR1_ROOM1,287.14,20.4,2166.118,7.544,105.973,0.000,0.500,0.000,0.500,Electric Equipment,0.000,2166.118
! <Shadowing/Sun Position Calculations Annual Simulations>, Shading Calculation Method, Shading Calculation Update Frequency Method, Shading Calculation Update Frequency {days}, Maximum Figures in Shadow Overlap Calculations {}, Polygon Clipping Algorithm, Pixel Counting Resolution, Sky Diffuse Modeling Algorithm, Output External Shading Calculation Results, Disable Self-Shading Within Shading Zone Groups, Disable Self-Shading From Shading Zone Groups to Other Zones
Shadowing/Sun Position Calculations Annual Simulations,PolygonClipping,Periodic,30,15000,SutherlandHodgman,512,SimpleSkyDiffuseModeling,No,No,No
